*Heading
** Job name: Job-44345354 Model name: Model-1
** Generated by: Abaqus/CAE 2021.HF3
*Preprint, echo=NO, model=NO, history=NO, contact=NO
**
** PARTS
**
*Part, name=Part-1
*Node
      1,   9.60000038,         -20.
      2,   9.60000038,          20.
      3,  -9.60000038,          20.
      4,  -9.60000038,         -20.
      5,         -25.,          20.
      6,         -25.,         -20.
      7,          25.,         -20.
      8,          25.,          20.
      9,   9.60000038,  -19.7999229
     10,   9.60000038,  -19.5998707
     11,   9.60000038,  -19.3998375
     12,   9.60000038,  -19.1998215
     13,   9.60000038,  -18.9998131
     14,   9.60000038,  -18.7998085
     15,   9.60000038,  -18.5998096
     16,   9.60000038,  -18.3998108
     17,   9.60000038,  -18.1998119
     18,   9.60000038,  -17.9998131
     19,   9.60000038,  -17.7998161
     20,   9.60000038,  -17.5998192
** ... 16270 like lines cut
*Element, type=CPS4R
   1,    1,    9,  577,  442
   2,    9,   10,  578,  577
   3,   10,   11,  579,  578
   4,   11,   12,  580,  579
   5,   12,   13,  581,  580
   6,   13,   14,  582,  581
   7,   14,   15,  583,  582
   8,   15,   16,  584,  583
   9,   16,   17,  585,  584
  10,   17,   18,  586,  585
  11,   18,   19,  587,  586
  12,   19,   20,  588,  587
  13,   20,   21,  589,  588
  14,   21,   22,  590,  589
  15,   22,   23,  591,  590
  16,   23,   24,  592,  591
  17,   24,   25,  593,  592
  18,   25,   26,  594,  593
  19,   26,   27,  595,  594
  20,   27,   28,  596,  595
** ... 16180 like lines cut
*Nset, nset=_PickedSet78, internal, generate
     1,  16290,      1
*Elset, elset=_PickedSet78, internal, generate
     1,  16200,      1
*Elset, elset=_Surf-part_S2, internal
   200,   400,   600,   800,  1000,  1200,  1400,  1600,  1800,  2000,  2200,  2400,  2600,  2800,  3000,  3200
  3400,  3600,  3800,  5680,  5760,  5840,  5920,  6000,  6080,  6160,  6240,  6320,  6400,  6480,  6560,  6640
  6720,  6800, 11880, 11960, 12040, 12120, 12200, 12280, 12360, 12440, 12520, 12600, 12680, 12760, 12840, 12920
 13000,
*Elset, elset=_Surf-part_S3, internal
  9961,  9962,  9963,  9964,  9965,  9966,  9967,  9968,  9969,  9970,  9971,  9972,  9973,  9974,  9975,  9976
  9977,  9978,  9979,  9980,  9981,  9982,  9983,  9984,  9985,  9986,  9987,  9988,  9989,  9990,  9991,  9992
  9993,  9994,  9995,  9996,  9997,  9998,  9999, 10000, 16161, 16162, 16163, 16164, 16165, 16166, 16167, 16168
 16169, 16170, 16171, 16172, 16173, 16174, 16175, 16176, 16177, 16178, 16179, 16180, 16181, 16182, 16183, 16184
 16185, 16186, 16187, 16188, 16189, 16190, 16191, 16192, 16193, 16194, 16195, 16196, 16197, 16198, 16199, 16200
*Elset, elset=_Surf-part_S4, internal
     1,   201,   401,   601,   801,  1001,  1201,  1401,  1601,  1801,  2001,  2201,  2401,  2601,  2801,  3001
  3201,  3401,  3601,  3801,  3881,  3961,  4041,  4121,  4201,  4281,  4361,  4441,  4521,  4601,  4681,  4761
  4841,  4921, 10001, 10081, 10161, 10241, 10321, 10401, 10481, 10561, 10641, 10721, 10801, 10881, 10961, 11041
 11121,
*Surface, type=ELEMENT, name=Surf-part
_Surf-part_S2, S2
_Surf-part_S3, S3
_Surf-part_S4, S4
*Orientation, name=Ori-1
1., 0., 0., 0., 1., 0.
3, 0.
** Region: (Section-2:Picked), (Controls:Default), (Material Orientation:Picked)
*Elset, elset=_I1, internal
     1,     2,     3,     4,     5,     6,     7,     8,     9,    10,    11,    12,    13,    14,    15,    16
    17,    18,    19,    20,    21,    22,    23,    24,    25,    26,    27,    28,    29,    30,    31,    32
    33,    34,    35,    36,    37,    38,    39,    40,    41,    42,    43,    44,    45,    46,    47,    48
    49,    50,    51,    52,    53,    54,    55,    56,    57,    58,    59,    60,    61,    62,    63,    64
    65,    66,    67,    68,    69,    70,    71,    72,    73,    74,    75,    76,    77,    78,    79,    80
    81,    82,    83,    84,    85,    86,    87,    88,    89,    90,    91,    92,    93,    94,    95,    96
    97,    98,    99,   100,   101,   102,   103,   104,   105,   106,   107,   108,   109,   110,   111,   112
   113,   114,   115,   116,   117,   118,   119,   120,   121,   122,   123,   124,   125,   126,   127,   128
   129,   130,   131,   132,   133,   134,   135,   136,   137,   138,   139,   140,   141,   142,   143,   144
   145,   146,   147,   148,   149,   150,   151,   152,   153,   154,   155,   156,   157,   158,   159,   160
   161,   162,   163,   164,   165,   166,   167,   168,   169,   170,   171,   172,   173,   174,   175,   176
   177,   178,   179,   180,   181,   182,   183,   184,   185,   186,   187,   188,   189,   190,   191,   192
   193,   194,   195,   196,   197,   198,   199,   200,   201,   202,   203,   204,   205,   206,   207,   208
   209,   210,   211,   212,   213,   214,   215,   216,   217,   218,   219,   220,   221,   222,   223,   224
   225,   226,   227,   228,   229,   230,   231,   232,   233,   234,   235,   236,   237,   238,   239,   240
   241,   242,   243,   244,   245,   246,   247,   248,   249,   250,   251,   252,   253,   254,   255,   256
   257,   258,   259,   260,   261,   262,   263,   264,   265,   266,   267,   268,   269,   270,   271,   272
   273,   274,   275,   276,   277,   278,   279,   280,   281,   282,   283,   284,   285,   286,   287,   288
   289,   290,   291,   292,   293,   294,   295,   296,   297,   298,   299,   300,   301,   302,   303,   304
   305,   306,   307,   308,   309,   310,   311,   312,   313,   314,   315,   316,   317,   318,   319,   320
** ... 605 like lines cut
** Section: Section-2
*Solid Section, elset=_I1, orientation=Ori-1, material=Material-1
,
** Region: (Section-2:Picked), (Controls:EC-1), (Material Orientation:Picked)
*Elset, elset=_I2, internal, generate
  3801,  10000,      1
** Section: Section-2
*Solid Section, elset=_I2, orientation=Ori-1, controls=EC-1, material=Material-1
,
*End Part
**  
*Part, name=Punch
*End Part
**  
**
** ASSEMBLY
**
*Assembly, name=Assembly
**  
*Instance, name=Part-1-1, part=Part-1
*End Instance
**  
*Instance, name=Punch-1, part=Punch
          0.,          -5.,           0.
*Node
      1,         -25.,          40.,           0.
*Nset, nset=Punch-1-RefPt_, internal
1, 
*Surface, type=SEGMENTS, name=Surf-rigid
START,           0.,          40.
 LINE,         -25.,          40.
 LINE,         -25.,          25.
 LINE,           0.,          25.
 LINE,           0.,          40.
*Rigid Body, ref node=Punch-1-RefPt_, analytical surface=Surf-rigid
*End Instance
**  
*Instance, name=Punch-1-lin-1-2, part=Punch
          0.,         -30.,           0.
*Node
      1,         -25.,          40.,           0.
*Nset, nset=Punch-1-lin-1-2-RefPt_, internal
1, 
*Surface, type=SEGMENTS, name=Surf-rigid
START,           0.,          40.
 LINE,         -25.,          40.
 LINE,         -25.,          25.
 LINE,           0.,          25.
 LINE,           0.,          40.
*Rigid Body, ref node=Punch-1-lin-1-2-RefPt_, analytical surface=Surf-rigid
*End Instance
**  
*Nset, nset=Set-1, instance=Part-1-1
    3,    5,  217,  218,  219,  220,  221,  222,  223,  224,  225,  226,  227,  228,  443,  444
  445,  446,  447,  448,  449,  450,  451,  452,  453,  454,  455,  456, 2563, 2564, 2565, 2566
 2762, 2763, 2764, 2765, 2961, 2962, 2963, 2964, 3160, 3161, 3162, 3163, 3359, 3360, 3361, 3362
 3559, 3560, 3561, 3758, 3759, 3760, 3957, 3958, 3959, 4156, 4157, 4158, 6114, 6115, 6116, 6193
 6194, 6195, 6273, 6274, 6352, 6353, 6431, 6432, 6510, 6511, 6590, 6669, 6748, 6827
*Nset, nset=Set-2, instance=Part-1-1
    3,    5,  217,  218,  219,  220,  221,  222,  223,  224,  225,  226,  227,  228,  229,  230
  443,  444,  445,  446,  447,  448,  449,  450,  451,  452,  453,  454,  455,  456, 2561, 2562
 2563, 2564, 2565, 2566, 2760, 2761, 2762, 2763, 2764, 2765, 2959, 2960, 2961, 2962, 2963, 2964
 3158, 3159, 3160, 3161, 3162, 3163, 3358, 3359, 3360, 3361, 3362, 3557, 3558, 3559, 3560, 3561
 3756, 3757, 3758, 3759, 3760, 3955, 3956, 3957, 3958, 3959, 4154, 4155, 4156, 4157, 4158, 6113
 6114, 6115, 6116, 6192, 6193, 6194, 6195, 6271, 6272, 6273, 6274, 6350, 6351, 6352, 6353, 6429
 6430, 6431, 6432, 6509, 6510, 6511, 6588, 6589, 6590, 6667, 6668, 6669, 6747, 6748, 6826, 6827
 6906, 6985, 7064
*Nset, nset=Set-3, instance=Part-1-1
     3,     4,     5,     6,   218,   219,   220,   221,   222,   223,   224,   225,   226,   227,   228,   229
   230,   231,   232,   233,   234,   235,   236,   237,   238,   239,   240,   241,   242,   243,   244,   245
   246,   247,   248,   249,   250,   251,   252,   253,   254,   255,   256,   257,   258,   259,   260,   261
   262,   263,   264,   265,   266,   267,   268,   269,   270,   271,   272,   273,   274,   275,   276,   277
   278,   279,   280,   281,   282,   283,   284,   285,   286,   287,   288,   289,   290,   291,   292,   293
   294,   295,   296,   297,   298,   299,   300,   301,   302,   303,   304,   305,   306,   307,   308,   309
   310,   311,   312,   313,   314,   315,   316,   317,   318,   319,   320,   321,   322,   323,   324,   325
   326,   327,   328,   329,   330,   331,   332,   333,   334,   335,   336,   337,   338,   339,   340,   341
   342,   343,   344,   345,   346,   347,   348,   349,   350,   351,   352,   353,   354,   355,   356,   357
   358,   359,   360,   361,   362,   363,   364,   365,   366,   367,   368,   369,   370,   371,   372,   373
   374,   375,   376,   377,   378,   379,   380,   381,   382,   383,   384,   385,   386,   387,   388,   389
   390,   391,   392,   393,   394,   395,   396,   397,   398,   399,   400,   401,   402,   403,   404,   405
   406,   407,   408,   409,   410,   411,   412,   413,   414,   415,   416,   417,   418,   419,   420,   421
   422,   423,   424,   425,   426,   427,   428,   429,   430,   431,   443,   444,   445,   446,   447,   448
   449,   450,   451,   452,   453,   454,   455,   456,   457,   458,   459,   460,   461,   462,   463,   464
   465,   466,   467,   468,   469,   470,   471,   472,   473,   474,   475,   476,   477,   478,   479,   480
   481,   482,   483,   484,   485,   486,   487,   488,   489,   490,   491,   492,   493,   494,   495,   496
   497,   498,   499,   500,   501,   502,   503,   504,   505,   506,   507,   508,   509,  2713,  2714,  2715
  2716,  2717,  2718,  2719,  2720,  2721,  2722,  2723,  2724,  2725,  2726,  2727,  2728,  2729,  2730,  2731
  2732,  2733,  2734,  2735,  2736,  2737,  2738,  2739,  2740,  2741,  2742,  2743,  2744,  2745,  2746,  2747
** ... 468 like lines cut
*Nset, nset=Set-punch, instance=Punch-1
 1,
*Nset, nset=_PickedSet98, internal, instance=Part-1-1
   7,   8, 524, 525, 526, 527, 528, 529, 530, 531, 532, 533, 534, 535, 536, 537
 538, 539, 540, 541, 542, 543, 544, 545, 546, 547, 548, 549, 550, 551, 552, 553
 554, 555, 556, 557, 558, 559, 560, 561, 562
*Elset, elset=_PickedSet98, internal, instance=Part-1-1, generate
 16161,  16200,      1
*End Assembly
** 
** ELEMENT CONTROLS
** 
*Section Controls, name=EC-1, ELEMENT DELETION=YES, MAX DEGRADATION=0.95
1., 1., 1.
*Amplitude, name=Amp-1
             0.,              0.,              1.,              1.
*Amplitude, name=Amp-2
             0.,              0.,              1.,              1.
*Amplitude, name=Amp-3
            0.1,             12.,              1.,             50.
*Amplitude, name=Amp-4
             0.,              0.,            0.01,              1.
*Amplitude, name=Amp-5
             0.,              0.,              1.,              1.
*Amplitude, name=Amp-7, time=TOTAL TIME
             0.,              0.,              1.,              1.
*Amplitude, name=Amp-8
             0.,              0.,             0.1,             0.1,             0.2,             0.2,             0.3,             0.3
            0.4,             0.4,             0.5,             0.5,             0.6,             0.6,             0.7,             0.7
            0.8,             0.8,             0.9,             0.9,              1.,              1.
** 
** MATERIALS
** 
*Material, name=Material-1
*Damage Initiation, criterion=DUCTILE
  1.,  0.,  5.
 0.5, 0.1,  5.
 0.1,100., 20.
*Damage Evolution, type=DISPLACEMENT
20.,
*Damage Initiation, criterion=MAXPS
 1e+08,
*Damage Evolution, type=DISPLACEMENT
50.,
*Damage Initiation, criterion=SHEAR, ks=0.1
  1.,  0.,  5.
 0.5, 0.1,  5.
 0.1,100., 20.
*Damage Evolution, type=ENERGY, softening=EXPONENTIAL
50.,
*Elastic
220., 0.3
*Plastic, scalestress=800.
  755.,   0.
  809., 0.01
  829., 0.02
  842.,  0.1
  895., 0.15
14000.,  20.
** 
** BOUNDARY CONDITIONS
** 
** Name: BC-punch Type: Displacement/Rotation
*Boundary
Set-punch, 1, 1
Set-punch, 2, 2
Set-punch, 6, 6
** ----------------------------------------------------------------
** 
** STEP: Step-1
** 
*Step, name=Step-1, nlgeom=YES, inc=1000000
*Static, stabilize=0.0002, allsdtol=0.05, continue=NO
1e-05, 1., 1e-12, 1.
** 
** BOUNDARY CONDITIONS
** 
** Name: BC-5 Type: Symmetry/Antisymmetry/Encastre
*Boundary
_PickedSet98, ENCASTRE
** Name: BC-7 Type: Displacement/Rotation
*Boundary
Set-3, 1, 1
Set-3, 2, 2, -5000.
Set-3, 6, 6
** Name: BC-punch Type: Displacement/Rotation
*Boundary, amplitude=Amp-8
Set-punch, 1, 1
Set-punch, 2, 2, -20.
Set-punch, 6, 6
** 
** OUTPUT REQUESTS
** 
*Restart, write, frequency=0
** 
** FIELD OUTPUT: F-Output-1
** 
*Output, field
*Node Output
CF, PHILSM, PSILSM, RF, U
*Element Output, directions=YES
DAMAGEMT, DAMAGET, DMICRT, LE, MVF, PE, PEEQ, PEMAG, S, STATUS
** 
** HISTORY OUTPUT: H-Output-1
** 
*Output, history, variable=PRESELECT
*End Step
