 Abaqus/Standard 2021.HF3                  DATE 22-Jun-2024 TIME 17:44:07
 SUMMARY OF JOB INFORMATION:
 STEP  INC ATT SEVERE EQUIL TOTAL  TOTAL      STEP       INC OF       DOF    IF
               DISCON ITERS ITERS  TIME/    TIME/LPF    TIME/LPF    MONITOR RIKS
               ITERS               FREQ
   1     1   1     0     5     5  1.00e-05   1.00e-05   1.000e-05 
   1     2   1     0     1     1  2.00e-05   2.00e-05   1.000e-05 
   1     3   1     0     1     1  3.00e-05   3.00e-05   1.000e-05 
   1     4   1     0     1     1  4.50e-05   4.50e-05   1.500e-05 
   1     5   1     0     1     1  6.75e-05   6.75e-05   2.250e-05 
   1     6   1     0     1     1  0.000101   0.000101   3.375e-05 
   1     7   1     0     1     1  0.000152   0.000152   5.063e-05 
   1     8   1     0     1     1  0.000228   0.000228   7.594e-05 
   1     9   1     0     2     2  0.000342   0.000342   0.0001139 
   1    10   1     0     2     2  0.000513   0.000513   0.0001709 
   1    11   1     0     2     2  0.000769   0.000769   0.0002563 
   1    12   1     0     3     3  0.00115    0.00115    0.0003844 
   1    13   1     0     4     4  0.00173    0.00173    0.0005767 
   1    14   1U    0     3     3  0.00173    0.00173    0.0008650 
   1    14   2     0     3     3  0.00195    0.00195    0.0002162 
   1    15   1     0     5     5  0.00227    0.00227    0.0003244 
   1    16   1U    0     4     4  0.00227    0.00227    0.0003244 
   1    16   2     0     4     4  0.00235    0.00235    8.109e-05 
   1    17   1U    0     4     4  0.00235    0.00235    8.109e-05 
   1    17   2     0     3     3  0.00237    0.00237    2.027e-05 
   1    18   1U    0     5     5  0.00237    0.00237    3.041e-05 
   1    18   2     0     3     3  0.00238    0.00238    7.602e-06 
   1    19   1U    0     3     3  0.00238    0.00238    1.140e-05 
   1    19   2     0     3     3  0.00238    0.00238    2.851e-06 
   1    20   1U    0     4     4  0.00238    0.00238    4.276e-06 
   1    20   2     0     3     3  0.00238    0.00238    1.069e-06 
   1    21   1U    0    11    11  0.00238    0.00238    1.604e-06 
   1    21   2     0     4     4  0.00238    0.00238    4.009e-07 
   1    22   1U    0     6     6  0.00238    0.00238    6.014e-07 
   1    22   2     0     3     3  0.00238    0.00238    1.503e-07 
   1    23   1U    0     4     4  0.00238    0.00238    2.255e-07 
   1    23   2     0     2     2  0.00238    0.00238    5.638e-08 
   1    24   1     0     3     3  0.00238    0.00238    8.457e-08 
   1    25   1U    0     5     5  0.00238    0.00238    1.268e-07 
   1    25   2     0     2     2  0.00238    0.00238    3.171e-08 
   1    26   1     0     3     3  0.00238    0.00238    4.757e-08 
   1    27   1     0     5     5  0.00238    0.00238    7.135e-08 
   1    28   1     0     3     3  0.00238    0.00238    7.135e-08 
   1    29   1     0     3     3  0.00238    0.00238    7.135e-08 
   1    30   1     0     3     3  0.00238    0.00238    1.070e-07 
   1    31   1     0     3     3  0.00238    0.00238    1.605e-07 
   1    32   1     0     2     2  0.00238    0.00238    2.408e-07 
   1    33   1     0     2     2  0.00239    0.00239    3.612e-07 
   1    34   1     0     1     1  0.00239    0.00239    5.418e-07 
   1    35   1     0     1     1  0.00239    0.00239    8.127e-07 
   1    36   1     0     1     1  0.00239    0.00239    1.219e-06 
   1    37   1     0     1     1  0.00239    0.00239    1.829e-06 
   1    38   1     0     1     1  0.00239    0.00239    2.743e-06 
   1    39   1     0     1     1  0.00240    0.00240    4.115e-06 
   1    40   1     0     1     1  0.00240    0.00240    6.172e-06 
   1    41   1     0     1     1  0.00241    0.00241    9.258e-06 
   1    42   1     0     1     1  0.00243    0.00243    1.389e-05 
   1    43   1     0     2     2  0.00245    0.00245    2.083e-05 
   1    44   1     0     2     2  0.00248    0.00248    3.124e-05 
   1    45   1     0     3     3  0.00252    0.00252    4.687e-05 
   1    46   1     0     5     5  0.00260    0.00260    7.030e-05 
   1    47   1     0     8     8  0.00267    0.00267    7.030e-05 
   1    48   1U    0     4     4  0.00267    0.00267    7.030e-05 
   1    48   2     0     2     2  0.00268    0.00268    1.758e-05 
   1    49   1     0     1     1  0.00270    0.00270    1.758e-05 
   1    50   1     0     2     2  0.00273    0.00273    2.636e-05 
   1    51   1U    0     4     4  0.00273    0.00273    3.954e-05 
   1    51   2     0     1     1  0.00274    0.00274    9.886e-06 
   1    52   1     0     1     1  0.00275    0.00275    1.483e-05 
   1    53   1U    0     4     4  0.00275    0.00275    2.224e-05 
   1    53   2     0     1     1  0.00276    0.00276    5.561e-06 
   1    54   1U    0     4     4  0.00276    0.00276    8.341e-06 
   1    54   2     0     2     2  0.00276    0.00276    2.085e-06 
   1    55   1U    0     4     4  0.00276    0.00276    3.128e-06 
   1    55   2     0     2     2  0.00276    0.00276    7.820e-07 
   1    56   1U    0     4     4  0.00276    0.00276    1.173e-06 
   1    56   2     0     2     2  0.00276    0.00276    2.933e-07 
   1    57   1     0     2     2  0.00276    0.00276    4.399e-07 
   1    58   1U    0     5     5  0.00276    0.00276    6.598e-07 
   1    58   2     0     2     2  0.00276    0.00276    1.650e-07 
   1    59   1     0     2     2  0.00276    0.00276    2.474e-07 
   1    60   1U    0     4     4  0.00276    0.00276    3.711e-07 
   1    60   2     0     2     2  0.00276    0.00276    9.279e-08 
   1    61   1     0     2     2  0.00276    0.00276    1.392e-07 
   1    62   1     0     2     2  0.00276    0.00276    2.088e-07 
   1    63   1U    0     4     4  0.00276    0.00276    3.132e-07 
   1    63   2     0     2     2  0.00276    0.00276    7.829e-08 
   1    64   1     0     3     3  0.00276    0.00276    1.174e-07 
   1    65   1U    0    10    10  0.00276    0.00276    1.761e-07 
   1    65   2     0     2     2  0.00276    0.00276    4.404e-08 
   1    66   1     0     3     3  0.00276    0.00276    6.606e-08 
   1    67   1U    0     5     5  0.00276    0.00276    9.908e-08 
   1    67   2     0     1     1  0.00276    0.00276    2.477e-08 
   1    68   1     0     2     2  0.00276    0.00276    3.716e-08 
   1    69   1     0     3     3  0.00276    0.00276    5.573e-08 
   1    70   1     0     9     9  0.00276    0.00276    8.360e-08 
   1    71   1     0     3     3  0.00276    0.00276    8.360e-08 
   1    72   1     0     3     3  0.00276    0.00276    8.360e-08 
   1    73   1     0     2     2  0.00276    0.00276    1.254e-07 
   1    74   1     0     2     2  0.00276    0.00276    1.881e-07 
   1    75   1     0     2     2  0.00276    0.00276    2.822e-07 
   1    76   1U    0     4     4  0.00276    0.00276    4.232e-07 
   1    76   2     0     1     1  0.00276    0.00276    1.058e-07 
   1    77   1     0     3     3  0.00276    0.00276    1.587e-07 
   1    78   1     0     3     3  0.00276    0.00276    2.381e-07 
   1    79   1     0     1     1  0.00276    0.00276    3.571e-07 
   1    80   1     0     1     1  0.00276    0.00276    5.357e-07 
   1    81   1     0     1     1  0.00277    0.00277    8.035e-07 
   1    82   1U    0     9     9  0.00277    0.00277    1.205e-06 
   1    82   2     0     1     1  0.00277    0.00277    3.013e-07 
