1

   Abaqus 2021.HF3                                  Date 22-Jun-2024   Time 17:43:41
   For use by Supplied by Team-SolidSQUAD under license from Dassault Systemes or its subsidiary.



                         The Abaqus Software is a product of:

                           Dassault Systemes SIMULIA Corp.
                           1301 Atwood Avenue, Suite 101W
                              Johnston, RI 02919, USA
 


                   The Abaqus Software is available only under license
                   from Dassault Systemes or its subsidiary and may be
                   used or reproduced only in accordance with the terms
                   of such license.
 
                          On machine DESKTOP-QCIN5NE 
                          you are authorized to run
                          Abaqus/Standard until 31-Dec-2055

                          Your site id is:  


 
                    For assistance or any other information you may
                    obtain contact information for your local office
                    from the world wide web at:

                      http://www.3ds.com/products/simulia/locations/

 
                * * * * * * * * * * * * * * * * * * * * * * * * * * * * * * 
                *                                                         * 
                *                   *****************                     * 
                *                   *  N O T I C E  *                     * 
                *                   *****************                     * 
                *                                                         * 
                *                                                         * 
                *                     Abaqus 2021.HF3                     * 
                *                                                         * 
                *          BUILD ID: 2020_09_29-22.11.46 167722           * 
                *                                                         * 
                *                                                         * 
                *  Please make sure you are using                         * 
                *  release Abaqus 2021.HF3 manuals                        * 
                *  plus the notes accompanying this release.              * 
                *                                                         * 
                *                                                         * 
                *                                                         * 
                *                                                         * 
                * * * * * * * * * * * * * * * * * * * * * * * * * * * * * * 


 



     PROCESSING PART, INSTANCE, AND ASSEMBLY INFORMATION
   *******************************************************


     END PROCESSING PART, INSTANCE, AND ASSEMBLY INFORMATION
   ***********************************************************




     OPTIONS BEING PROCESSED
   ***************************


  *Heading
  *Node
  *Element, type=CPS4R
  *Nset, nset=ASSEMBLY_PART-1-1__PICKEDSET78
  *Elset, elset=ASSEMBLY_PART-1-1__I1
  *Elset, elset=ASSEMBLY_PART-1-1__I2
  *Elset, elset=ASSEMBLY_PART-1-1__PICKEDSET78
  *Elset, elset=ASSEMBLY_PART-1-1__SURF-PART_S2
  *Elset, elset=ASSEMBLY_PART-1-1__SURF-PART_S3
  *Elset, elset=ASSEMBLY_PART-1-1__SURF-PART_S4
  *Node
  *Nset, nset=ASSEMBLY_PUNCH-1_PUNCH-1-REFPT_
  *Node
  *Nset, nset=ASSEMBLY_PUNCH-1-LIN-1-2_PUNCH-1-LIN-1-2-REFPT_
  *Nset, nset=ASSEMBLY_SET-1
  *Nset, nset=ASSEMBLY_SET-2
  *Nset, nset=ASSEMBLY_SET-3
  *Nset, nset=ASSEMBLY_SET-PUNCH
  *Nset, nset=ASSEMBLY__PICKEDSET98
  *Elset, elset=ASSEMBLY__PICKEDSET98
  *amplitude, name=AMP-1
  *amplitude, name=AMP-2
  *amplitude, name=AMP-3
  *amplitude, name=AMP-4
  *amplitude, name=AMP-5
  *amplitude, name=AMP-7, time=TOTALTIME
  *amplitude, name=AMP-8
  *material, name=MATERIAL-1
  *damageinitiation, criterion=DUCTILE
  *damageevolution, type=DISPLACEMENT
  *damageinitiation, criterion=MAXPS
  *damageevolution, type=DISPLACEMENT
  *damageinitiation, criterion=SHEAR, ks=0.1
  *damageevolution, type=ENERGY, softening=EXPONENTIAL
  *elastic
  *plastic, scalestress=800
  *orientation, name=ASSEMBLY_PART-1-1_ORI-1
  *solidsection, elset=ASSEMBLY_PART-1-1__I1, orientation=ASSEMBLY_PART-1-1_ORI-1, material=MATERIAL-1
  *solidsection, elset=ASSEMBLY_PART-1-1__I2, orientation=ASSEMBLY_PART-1-1_ORI-1, material=MATERIAL-1, controls=EC-1
  *sectioncontrols, name=EC-1, elementdeletion=YES, maxdegradation=0.95
  *solidsection, elset=ASSEMBLY_PART-1-1__I1, orientation=ASSEMBLY_PART-1-1_ORI-1, material=MATERIAL-1
  *solidsection, elset=ASSEMBLY_PART-1-1__I2, orientation=ASSEMBLY_PART-1-1_ORI-1, material=MATERIAL-1, controls=EC-1
  *rigidbody, refnode=ASSEMBLY_PUNCH-1_PUNCH-1-REFPT_, analyticalsurface=ASSEMBLY_PUNCH-1_SURF-RIGID
  *rigidbody, refnode=ASSEMBLY_PUNCH-1-LIN-1-2_PUNCH-1-LIN-1-2-REFPT_, analyticalsurface=ASSEMBLY_PUNCH-1-LIN-1-2_SURF-RIGID
  *rigidbody, refnode=ASSEMBLY_PUNCH-1_PUNCH-1-REFPT_, analyticalsurface=ASSEMBLY_PUNCH-1_SURF-RIGID
  *rigidbody, refnode=ASSEMBLY_PUNCH-1-LIN-1-2_PUNCH-1-LIN-1-2-REFPT_, analyticalsurface=ASSEMBLY_PUNCH-1-LIN-1-2_SURF-RIGID
  *rigidbody, refnode=ASSEMBLY_PUNCH-1_PUNCH-1-REFPT_, analyticalsurface=ASSEMBLY_PUNCH-1_SURF-RIGID
  *rigidbody, refnode=ASSEMBLY_PUNCH-1-LIN-1-2_PUNCH-1-LIN-1-2-REFPT_, analyticalsurface=ASSEMBLY_PUNCH-1-LIN-1-2_SURF-RIGID
  *rigidbody, refnode=ASSEMBLY_PUNCH-1_PUNCH-1-REFPT_, analyticalsurface=ASSEMBLY_PUNCH-1_SURF-RIGID
  *rigidbody, refnode=ASSEMBLY_PUNCH-1-LIN-1-2_PUNCH-1-LIN-1-2-REFPT_, analyticalsurface=ASSEMBLY_PUNCH-1-LIN-1-2_SURF-RIGID
  *surface, type=ELEMENT, name=ASSEMBLY_PART-1-1_SURF-PART
  *surface, type=SEGMENTS, name=ASSEMBLY_PUNCH-1_SURF-RIGID
  *surface, type=SEGMENTS, name=ASSEMBLY_PUNCH-1-LIN-1-2_SURF-RIGID
  *surface, type=ELEMENT, name=ASSEMBLY_PART-1-1_SURF-PART
  *surface, type=SEGMENTS, name=ASSEMBLY_PUNCH-1_SURF-RIGID
  *surface, type=SEGMENTS, name=ASSEMBLY_PUNCH-1-LIN-1-2_SURF-RIGID
  *rigidbody, refnode=ASSEMBLY_PUNCH-1_PUNCH-1-REFPT_, analyticalsurface=ASSEMBLY_PUNCH-1_SURF-RIGID
  *rigidbody, refnode=ASSEMBLY_PUNCH-1-LIN-1-2_PUNCH-1-LIN-1-2-REFPT_, analyticalsurface=ASSEMBLY_PUNCH-1-LIN-1-2_SURF-RIGID
  *rigidbody, refnode=ASSEMBLY_PUNCH-1_PUNCH-1-REFPT_, analyticalsurface=ASSEMBLY_PUNCH-1_SURF-RIGID
  *rigidbody, refnode=ASSEMBLY_PUNCH-1-LIN-1-2_PUNCH-1-LIN-1-2-REFPT_, analyticalsurface=ASSEMBLY_PUNCH-1-LIN-1-2_SURF-RIGID
  *rigidbody, refnode=ASSEMBLY_PUNCH-1_PUNCH-1-REFPT_, analyticalsurface=ASSEMBLY_PUNCH-1_SURF-RIGID
  *rigidbody, refnode=ASSEMBLY_PUNCH-1-LIN-1-2_PUNCH-1-LIN-1-2-REFPT_, analyticalsurface=ASSEMBLY_PUNCH-1-LIN-1-2_SURF-RIGID
  *boundary
  *boundary
  *boundary
  *boundary, amplitude=AMP-8
  *boundary
  *boundary
  *boundary
  *boundary, amplitude=AMP-8
  *rigidbody, refnode=ASSEMBLY_PUNCH-1_PUNCH-1-REFPT_, analyticalsurface=ASSEMBLY_PUNCH-1_SURF-RIGID
  *rigidbody, refnode=ASSEMBLY_PUNCH-1-LIN-1-2_PUNCH-1-LIN-1-2-REFPT_, analyticalsurface=ASSEMBLY_PUNCH-1-LIN-1-2_SURF-RIGID
  *surface, type=ELEMENT, name=ASSEMBLY_PART-1-1_SURF-PART
  *surface, type=SEGMENTS, name=ASSEMBLY_PUNCH-1_SURF-RIGID
  *surface, type=SEGMENTS, name=ASSEMBLY_PUNCH-1-LIN-1-2_SURF-RIGID
  *output, field
  *output, history, variable=PRESELECT
  *elementoutput, directions=YES
  *output, field
  *output, history, variable=PRESELECT
  *elementoutput, directions=YES
  *output, field
  *output, history, variable=PRESELECT
  *elementoutput, directions=YES
  *Step, name=Step-1, nlgeom=YES, inc=1000000
  *output, field
  *output, history, variable=PRESELECT
  *Step, name=Step-1, nlgeom=YES, inc=1000000
  *Step, name=Step-1, nlgeom=YES, inc=1000000
  *static, stabilize=0.0002, allsdtol=0.05, continue=NO
  *boundary
  *boundary
  *boundary, amplitude=AMP-8
  *output, field
  *nodeoutput
  *elementoutput, directions=YES
  *output, history, variable=PRESELECT
  *endstep

 ***WARNING: OUTPUT REQUEST PHILSM IS ONLY VALID WITH XFEM

 ***WARNING: OUTPUT REQUEST PSILSM IS ONLY VALID WITH XFEM

 ***NOTE: OUTPUT REQUEST DAMAGET IS NOT AVAILABLE FOR THE MATERIAL FOR ELEMENT 
          TYPE CPS4R

 ***NOTE: OUTPUT REQUEST MVF IS NOT AVAILABLE FOR THE MATERIAL FOR ELEMENT TYPE 
          CPS4R
  *boundary
  *Step, name=Step-1, nlgeom=YES, inc=1000000
  *static, stabilize=0.0002, allsdtol=0.05, continue=NO
  *boundary
  *boundary
  *boundary, amplitude=AMP-8
  *endstep

 ***WARNING: OUTPUT REQUEST CF HAS BEEN REMOVED AS THERE ARE NO APPLICABLE 
             LOADS IN THIS STEP

 ***WARNING: DEGREE OF FREEDOM 6 IS NOT ACTIVE ON NODE 3 INSTANCE PART-1-1 - 
             THIS BOUNDARY CONDITION IS IGNORED

 ***WARNING: DEGREE OF FREEDOM 6 IS NOT ACTIVE ON NODE 4 INSTANCE PART-1-1 - 
             THIS BOUNDARY CONDITION IS IGNORED

 ***WARNING: DEGREE OF FREEDOM 6 IS NOT ACTIVE ON NODE 5 INSTANCE PART-1-1 - 
             THIS BOUNDARY CONDITION IS IGNORED

 ***WARNING: DEGREE OF FREEDOM 6 IS NOT ACTIVE ON NODE 6 INSTANCE PART-1-1 - 
             THIS BOUNDARY CONDITION IS IGNORED

 ***WARNING: DEGREE OF FREEDOM 6 IS NOT ACTIVE ON NODE 218 INSTANCE PART-1-1 - 
             THIS BOUNDARY CONDITION IS IGNORED

 ***WARNING: DEGREE OF FREEDOM 6 IS NOT ACTIVE ON NODE 219 INSTANCE PART-1-1 - 
             THIS BOUNDARY CONDITION IS IGNORED

 ***WARNING: DEGREE OF FREEDOM 6 IS NOT ACTIVE ON NODE 220 INSTANCE PART-1-1 - 
             THIS BOUNDARY CONDITION IS IGNORED

 ***WARNING: DEGREE OF FREEDOM 6 IS NOT ACTIVE ON NODE 221 INSTANCE PART-1-1 - 
             THIS BOUNDARY CONDITION IS IGNORED

 ***WARNING: DEGREE OF FREEDOM 6 IS NOT ACTIVE ON NODE 222 INSTANCE PART-1-1 - 
             THIS BOUNDARY CONDITION IS IGNORED

 ***WARNING: DEGREE OF FREEDOM 6 IS NOT ACTIVE ON NODE 223 INSTANCE PART-1-1 - 
             THIS BOUNDARY CONDITION IS IGNORED

 ***WARNING: DEGREE OF FREEDOM 6 IS NOT ACTIVE ON NODE 224 INSTANCE PART-1-1 - 
             THIS BOUNDARY CONDITION IS IGNORED

 ***WARNING: DEGREE OF FREEDOM 6 IS NOT ACTIVE ON NODE 225 INSTANCE PART-1-1 - 
             THIS BOUNDARY CONDITION IS IGNORED

 ***WARNING: DEGREE OF FREEDOM 6 IS NOT ACTIVE ON NODE 226 INSTANCE PART-1-1 - 
             THIS BOUNDARY CONDITION IS IGNORED

 ***WARNING: DEGREE OF FREEDOM 6 IS NOT ACTIVE ON NODE 227 INSTANCE PART-1-1 - 
             THIS BOUNDARY CONDITION IS IGNORED

 ***WARNING: DEGREE OF FREEDOM 6 IS NOT ACTIVE ON NODE 228 INSTANCE PART-1-1 - 
             THIS BOUNDARY CONDITION IS IGNORED

 ***WARNING: DEGREE OF FREEDOM 6 IS NOT ACTIVE ON NODE 229 INSTANCE PART-1-1 - 
             THIS BOUNDARY CONDITION IS IGNORED

 ***WARNING: DEGREE OF FREEDOM 6 IS NOT ACTIVE ON NODE 230 INSTANCE PART-1-1 - 
             THIS BOUNDARY CONDITION IS IGNORED

 ***WARNING: DEGREE OF FREEDOM 6 IS NOT ACTIVE ON NODE 231 INSTANCE PART-1-1 - 
             THIS BOUNDARY CONDITION IS IGNORED

 ***WARNING: DEGREE OF FREEDOM 6 IS NOT ACTIVE ON NODE 232 INSTANCE PART-1-1 - 
             THIS BOUNDARY CONDITION IS IGNORED

 ***WARNING: DEGREE OF FREEDOM 6 IS NOT ACTIVE ON NODE 233 INSTANCE PART-1-1 - 
             THIS BOUNDARY CONDITION IS IGNORED

 ***WARNING: DEGREE OF FREEDOM 6 IS NOT ACTIVE ON NODE 234 INSTANCE PART-1-1 - 
             THIS BOUNDARY CONDITION IS IGNORED

 ***WARNING: DEGREE OF FREEDOM 6 IS NOT ACTIVE ON NODE 235 INSTANCE PART-1-1 - 
             THIS BOUNDARY CONDITION IS IGNORED

 ***WARNING: DEGREE OF FREEDOM 6 IS NOT ACTIVE ON NODE 236 INSTANCE PART-1-1 - 
             THIS BOUNDARY CONDITION IS IGNORED

 ***WARNING: DEGREE OF FREEDOM 6 IS NOT ACTIVE ON NODE 237 INSTANCE PART-1-1 - 
             THIS BOUNDARY CONDITION IS IGNORED

 ***WARNING: DEGREE OF FREEDOM 6 IS NOT ACTIVE ON NODE 238 INSTANCE PART-1-1 - 
             THIS BOUNDARY CONDITION IS IGNORED

 ***WARNING: DEGREE OF FREEDOM 6 IS NOT ACTIVE ON NODE 239 INSTANCE PART-1-1 - 
             THIS BOUNDARY CONDITION IS IGNORED

 ***WARNING: DEGREE OF FREEDOM 6 IS NOT ACTIVE ON NODE 240 INSTANCE PART-1-1 - 
             THIS BOUNDARY CONDITION IS IGNORED

 ***WARNING: DEGREE OF FREEDOM 6 IS NOT ACTIVE ON NODE 241 INSTANCE PART-1-1 - 
             THIS BOUNDARY CONDITION IS IGNORED

 ***WARNING: DEGREE OF FREEDOM 6 IS NOT ACTIVE ON NODE 242 INSTANCE PART-1-1 - 
             THIS BOUNDARY CONDITION IS IGNORED

 ***WARNING: DEGREE OF FREEDOM 6 IS NOT ACTIVE ON NODE 243 INSTANCE PART-1-1 - 
             THIS BOUNDARY CONDITION IS IGNORED

 ***WARNING: DEGREE OF FREEDOM 6 IS NOT ACTIVE ON NODE 244 INSTANCE PART-1-1 - 
             THIS BOUNDARY CONDITION IS IGNORED

 ***WARNING: DEGREE OF FREEDOM 6 IS NOT ACTIVE ON NODE 245 INSTANCE PART-1-1 - 
             THIS BOUNDARY CONDITION IS IGNORED

 ***WARNING: DEGREE OF FREEDOM 6 IS NOT ACTIVE ON NODE 246 INSTANCE PART-1-1 - 
             THIS BOUNDARY CONDITION IS IGNORED

 ***WARNING: DEGREE OF FREEDOM 6 IS NOT ACTIVE ON NODE 247 INSTANCE PART-1-1 - 
             THIS BOUNDARY CONDITION IS IGNORED

 ***WARNING: DEGREE OF FREEDOM 6 IS NOT ACTIVE ON NODE 248 INSTANCE PART-1-1 - 
             THIS BOUNDARY CONDITION IS IGNORED

 ***WARNING: DEGREE OF FREEDOM 6 IS NOT ACTIVE ON NODE 249 INSTANCE PART-1-1 - 
             THIS BOUNDARY CONDITION IS IGNORED

 ***WARNING: DEGREE OF FREEDOM 6 IS NOT ACTIVE ON NODE 250 INSTANCE PART-1-1 - 
             THIS BOUNDARY CONDITION IS IGNORED

 ***WARNING: DEGREE OF FREEDOM 6 IS NOT ACTIVE ON NODE 251 INSTANCE PART-1-1 - 
             THIS BOUNDARY CONDITION IS IGNORED

 ***WARNING: DEGREE OF FREEDOM 6 IS NOT ACTIVE ON NODE 252 INSTANCE PART-1-1 - 
             THIS BOUNDARY CONDITION IS IGNORED

 ***WARNING: DEGREE OF FREEDOM 6 IS NOT ACTIVE ON NODE 253 INSTANCE PART-1-1 - 
             THIS BOUNDARY CONDITION IS IGNORED

 ***WARNING: DEGREE OF FREEDOM 6 IS NOT ACTIVE ON NODE 254 INSTANCE PART-1-1 - 
             THIS BOUNDARY CONDITION IS IGNORED

 ***WARNING: DEGREE OF FREEDOM 6 IS NOT ACTIVE ON NODE 255 INSTANCE PART-1-1 - 
             THIS BOUNDARY CONDITION IS IGNORED

 ***WARNING: DEGREE OF FREEDOM 6 IS NOT ACTIVE ON NODE 256 INSTANCE PART-1-1 - 
             THIS BOUNDARY CONDITION IS IGNORED

 ***WARNING: DEGREE OF FREEDOM 6 IS NOT ACTIVE ON NODE 257 INSTANCE PART-1-1 - 
             THIS BOUNDARY CONDITION IS IGNORED

 ***WARNING: DEGREE OF FREEDOM 6 IS NOT ACTIVE ON NODE 258 INSTANCE PART-1-1 - 
             THIS BOUNDARY CONDITION IS IGNORED

 ***WARNING: DEGREE OF FREEDOM 6 IS NOT ACTIVE ON NODE 259 INSTANCE PART-1-1 - 
             THIS BOUNDARY CONDITION IS IGNORED

 ***WARNING: DEGREE OF FREEDOM 6 IS NOT ACTIVE ON NODE 260 INSTANCE PART-1-1 - 
             THIS BOUNDARY CONDITION IS IGNORED

 ***WARNING: DEGREE OF FREEDOM 6 IS NOT ACTIVE ON NODE 261 INSTANCE PART-1-1 - 
             THIS BOUNDARY CONDITION IS IGNORED

 ***WARNING: DEGREE OF FREEDOM 6 IS NOT ACTIVE ON NODE 262 INSTANCE PART-1-1 - 
             THIS BOUNDARY CONDITION IS IGNORED

 ***WARNING: DEGREE OF FREEDOM 6 IS NOT ACTIVE ON NODE 263 INSTANCE PART-1-1 - 
             THIS BOUNDARY CONDITION IS IGNORED

 ***WARNING: DEGREE OF FREEDOM 6 IS NOT ACTIVE ON NODE 264 INSTANCE PART-1-1 - 
             THIS BOUNDARY CONDITION IS IGNORED

 ***WARNING: DEGREE OF FREEDOM 6 IS NOT ACTIVE ON NODE 265 INSTANCE PART-1-1 - 
             THIS BOUNDARY CONDITION IS IGNORED

 ***WARNING: DEGREE OF FREEDOM 6 IS NOT ACTIVE ON NODE 266 INSTANCE PART-1-1 - 
             THIS BOUNDARY CONDITION IS IGNORED

 ***WARNING: DEGREE OF FREEDOM 6 IS NOT ACTIVE ON NODE 267 INSTANCE PART-1-1 - 
             THIS BOUNDARY CONDITION IS IGNORED

 ***WARNING: DEGREE OF FREEDOM 6 IS NOT ACTIVE ON NODE 268 INSTANCE PART-1-1 - 
             THIS BOUNDARY CONDITION IS IGNORED

 ***WARNING: DEGREE OF FREEDOM 6 IS NOT ACTIVE ON NODE 269 INSTANCE PART-1-1 - 
             THIS BOUNDARY CONDITION IS IGNORED

 ***WARNING: DEGREE OF FREEDOM 6 IS NOT ACTIVE ON NODE 270 INSTANCE PART-1-1 - 
             THIS BOUNDARY CONDITION IS IGNORED

 ***WARNING: DEGREE OF FREEDOM 6 IS NOT ACTIVE ON NODE 271 INSTANCE PART-1-1 - 
             THIS BOUNDARY CONDITION IS IGNORED

 ***WARNING: DEGREE OF FREEDOM 6 IS NOT ACTIVE ON NODE 272 INSTANCE PART-1-1 - 
             THIS BOUNDARY CONDITION IS IGNORED

 ***WARNING: DEGREE OF FREEDOM 6 IS NOT ACTIVE ON NODE 273 INSTANCE PART-1-1 - 
             THIS BOUNDARY CONDITION IS IGNORED

 ***WARNING: DEGREE OF FREEDOM 6 IS NOT ACTIVE ON NODE 274 INSTANCE PART-1-1 - 
             THIS BOUNDARY CONDITION IS IGNORED

 ***WARNING: DEGREE OF FREEDOM 6 IS NOT ACTIVE ON NODE 275 INSTANCE PART-1-1 - 
             THIS BOUNDARY CONDITION IS IGNORED

 ***WARNING: DEGREE OF FREEDOM 6 IS NOT ACTIVE ON NODE 276 INSTANCE PART-1-1 - 
             THIS BOUNDARY CONDITION IS IGNORED

 ***WARNING: DEGREE OF FREEDOM 6 IS NOT ACTIVE ON NODE 277 INSTANCE PART-1-1 - 
             THIS BOUNDARY CONDITION IS IGNORED

 ***WARNING: DEGREE OF FREEDOM 6 IS NOT ACTIVE ON NODE 278 INSTANCE PART-1-1 - 
             THIS BOUNDARY CONDITION IS IGNORED

 ***WARNING: DEGREE OF FREEDOM 6 IS NOT ACTIVE ON NODE 279 INSTANCE PART-1-1 - 
             THIS BOUNDARY CONDITION IS IGNORED

 ***WARNING: DEGREE OF FREEDOM 6 IS NOT ACTIVE ON NODE 280 INSTANCE PART-1-1 - 
             THIS BOUNDARY CONDITION IS IGNORED

 ***WARNING: DEGREE OF FREEDOM 6 IS NOT ACTIVE ON NODE 281 INSTANCE PART-1-1 - 
             THIS BOUNDARY CONDITION IS IGNORED

 ***WARNING: DEGREE OF FREEDOM 6 IS NOT ACTIVE ON NODE 282 INSTANCE PART-1-1 - 
             THIS BOUNDARY CONDITION IS IGNORED

 ***WARNING: DEGREE OF FREEDOM 6 IS NOT ACTIVE ON NODE 283 INSTANCE PART-1-1 - 
             THIS BOUNDARY CONDITION IS IGNORED

 ***WARNING: DEGREE OF FREEDOM 6 IS NOT ACTIVE ON NODE 284 INSTANCE PART-1-1 - 
             THIS BOUNDARY CONDITION IS IGNORED

 ***WARNING: DEGREE OF FREEDOM 6 IS NOT ACTIVE ON NODE 285 INSTANCE PART-1-1 - 
             THIS BOUNDARY CONDITION IS IGNORED

 ***WARNING: DEGREE OF FREEDOM 6 IS NOT ACTIVE ON NODE 286 INSTANCE PART-1-1 - 
             THIS BOUNDARY CONDITION IS IGNORED

 ***WARNING: DEGREE OF FREEDOM 6 IS NOT ACTIVE ON NODE 287 INSTANCE PART-1-1 - 
             THIS BOUNDARY CONDITION IS IGNORED

 ***WARNING: DEGREE OF FREEDOM 6 IS NOT ACTIVE ON NODE 288 INSTANCE PART-1-1 - 
             THIS BOUNDARY CONDITION IS IGNORED

 ***WARNING: DEGREE OF FREEDOM 6 IS NOT ACTIVE ON NODE 289 INSTANCE PART-1-1 - 
             THIS BOUNDARY CONDITION IS IGNORED

 ***WARNING: DEGREE OF FREEDOM 6 IS NOT ACTIVE ON NODE 290 INSTANCE PART-1-1 - 
             THIS BOUNDARY CONDITION IS IGNORED

 ***WARNING: DEGREE OF FREEDOM 6 IS NOT ACTIVE ON NODE 291 INSTANCE PART-1-1 - 
             THIS BOUNDARY CONDITION IS IGNORED

 ***WARNING: DEGREE OF FREEDOM 6 IS NOT ACTIVE ON NODE 292 INSTANCE PART-1-1 - 
             THIS BOUNDARY CONDITION IS IGNORED

 ***WARNING: DEGREE OF FREEDOM 6 IS NOT ACTIVE ON NODE 293 INSTANCE PART-1-1 - 
             THIS BOUNDARY CONDITION IS IGNORED

 ***WARNING: DEGREE OF FREEDOM 6 IS NOT ACTIVE ON NODE 294 INSTANCE PART-1-1 - 
             THIS BOUNDARY CONDITION IS IGNORED

 ***WARNING: DEGREE OF FREEDOM 6 IS NOT ACTIVE ON NODE 295 INSTANCE PART-1-1 - 
             THIS BOUNDARY CONDITION IS IGNORED

 ***WARNING: DEGREE OF FREEDOM 6 IS NOT ACTIVE ON NODE 296 INSTANCE PART-1-1 - 
             THIS BOUNDARY CONDITION IS IGNORED

 ***WARNING: DEGREE OF FREEDOM 6 IS NOT ACTIVE ON NODE 297 INSTANCE PART-1-1 - 
             THIS BOUNDARY CONDITION IS IGNORED

 ***WARNING: DEGREE OF FREEDOM 6 IS NOT ACTIVE ON NODE 298 INSTANCE PART-1-1 - 
             THIS BOUNDARY CONDITION IS IGNORED

 ***WARNING: DEGREE OF FREEDOM 6 IS NOT ACTIVE ON NODE 299 INSTANCE PART-1-1 - 
             THIS BOUNDARY CONDITION IS IGNORED

 ***WARNING: DEGREE OF FREEDOM 6 IS NOT ACTIVE ON NODE 300 INSTANCE PART-1-1 - 
             THIS BOUNDARY CONDITION IS IGNORED

 ***WARNING: DEGREE OF FREEDOM 6 IS NOT ACTIVE ON NODE 301 INSTANCE PART-1-1 - 
             THIS BOUNDARY CONDITION IS IGNORED

 ***WARNING: DEGREE OF FREEDOM 6 IS NOT ACTIVE ON NODE 302 INSTANCE PART-1-1 - 
             THIS BOUNDARY CONDITION IS IGNORED

 ***WARNING: DEGREE OF FREEDOM 6 IS NOT ACTIVE ON NODE 303 INSTANCE PART-1-1 - 
             THIS BOUNDARY CONDITION IS IGNORED

 ***WARNING: DEGREE OF FREEDOM 6 IS NOT ACTIVE ON NODE 304 INSTANCE PART-1-1 - 
             THIS BOUNDARY CONDITION IS IGNORED

 ***WARNING: DEGREE OF FREEDOM 6 IS NOT ACTIVE ON NODE 305 INSTANCE PART-1-1 - 
             THIS BOUNDARY CONDITION IS IGNORED

 ***WARNING: DEGREE OF FREEDOM 6 IS NOT ACTIVE ON NODE 306 INSTANCE PART-1-1 - 
             THIS BOUNDARY CONDITION IS IGNORED

 ***WARNING: DEGREE OF FREEDOM 6 IS NOT ACTIVE ON NODE 307 INSTANCE PART-1-1 - 
             THIS BOUNDARY CONDITION IS IGNORED

 ***WARNING: DEGREE OF FREEDOM 6 IS NOT ACTIVE ON NODE 308 INSTANCE PART-1-1 - 
             THIS BOUNDARY CONDITION IS IGNORED

 ***WARNING: DEGREE OF FREEDOM 6 IS NOT ACTIVE ON NODE 309 INSTANCE PART-1-1 - 
             THIS BOUNDARY CONDITION IS IGNORED

 ***WARNING: DEGREE OF FREEDOM 6 IS NOT ACTIVE ON NODE 310 INSTANCE PART-1-1 - 
             THIS BOUNDARY CONDITION IS IGNORED

 ***WARNING: DEGREE OF FREEDOM 6 IS NOT ACTIVE ON NODE 311 INSTANCE PART-1-1 - 
             THIS BOUNDARY CONDITION IS IGNORED

 ***WARNING: DEGREE OF FREEDOM 6 IS NOT ACTIVE ON NODE 312 INSTANCE PART-1-1 - 
             THIS BOUNDARY CONDITION IS IGNORED

 ***WARNING: DEGREE OF FREEDOM 6 IS NOT ACTIVE ON NODE 313 INSTANCE PART-1-1 - 
             THIS BOUNDARY CONDITION IS IGNORED

 ***WARNING: DEGREE OF FREEDOM 6 IS NOT ACTIVE ON NODE 314 INSTANCE PART-1-1 - 
             THIS BOUNDARY CONDITION IS IGNORED

 ***WARNING: DEGREE OF FREEDOM 6 IS NOT ACTIVE ON NODE 315 INSTANCE PART-1-1 - 
             THIS BOUNDARY CONDITION IS IGNORED

 ***WARNING: DEGREE OF FREEDOM 6 IS NOT ACTIVE ON NODE 316 INSTANCE PART-1-1 - 
             THIS BOUNDARY CONDITION IS IGNORED

 ***WARNING: DEGREE OF FREEDOM 6 IS NOT ACTIVE ON NODE 317 INSTANCE PART-1-1 - 
             THIS BOUNDARY CONDITION IS IGNORED

 ***WARNING: DEGREE OF FREEDOM 6 IS NOT ACTIVE ON NODE 318 INSTANCE PART-1-1 - 
             THIS BOUNDARY CONDITION IS IGNORED

 ***WARNING: DEGREE OF FREEDOM 6 IS NOT ACTIVE ON NODE 319 INSTANCE PART-1-1 - 
             THIS BOUNDARY CONDITION IS IGNORED

 ***WARNING: DEGREE OF FREEDOM 6 IS NOT ACTIVE ON NODE 320 INSTANCE PART-1-1 - 
             THIS BOUNDARY CONDITION IS IGNORED

 ***WARNING: DEGREE OF FREEDOM 6 IS NOT ACTIVE ON NODE 321 INSTANCE PART-1-1 - 
             THIS BOUNDARY CONDITION IS IGNORED

 ***WARNING: DEGREE OF FREEDOM 6 IS NOT ACTIVE ON NODE 322 INSTANCE PART-1-1 - 
             THIS BOUNDARY CONDITION IS IGNORED

 ***WARNING: DEGREE OF FREEDOM 6 IS NOT ACTIVE ON NODE 323 INSTANCE PART-1-1 - 
             THIS BOUNDARY CONDITION IS IGNORED

 ***WARNING: DEGREE OF FREEDOM 6 IS NOT ACTIVE ON NODE 324 INSTANCE PART-1-1 - 
             THIS BOUNDARY CONDITION IS IGNORED

 ***WARNING: DEGREE OF FREEDOM 6 IS NOT ACTIVE ON NODE 325 INSTANCE PART-1-1 - 
             THIS BOUNDARY CONDITION IS IGNORED

 ***WARNING: DEGREE OF FREEDOM 6 IS NOT ACTIVE ON NODE 326 INSTANCE PART-1-1 - 
             THIS BOUNDARY CONDITION IS IGNORED

 ***WARNING: DEGREE OF FREEDOM 6 IS NOT ACTIVE ON NODE 327 INSTANCE PART-1-1 - 
             THIS BOUNDARY CONDITION IS IGNORED

 ***WARNING: DEGREE OF FREEDOM 6 IS NOT ACTIVE ON NODE 328 INSTANCE PART-1-1 - 
             THIS BOUNDARY CONDITION IS IGNORED

 ***WARNING: DEGREE OF FREEDOM 6 IS NOT ACTIVE ON NODE 329 INSTANCE PART-1-1 - 
             THIS BOUNDARY CONDITION IS IGNORED

 ***WARNING: DEGREE OF FREEDOM 6 IS NOT ACTIVE ON NODE 330 INSTANCE PART-1-1 - 
             THIS BOUNDARY CONDITION IS IGNORED

 ***WARNING: DEGREE OF FREEDOM 6 IS NOT ACTIVE ON NODE 331 INSTANCE PART-1-1 - 
             THIS BOUNDARY CONDITION IS IGNORED

 ***WARNING: DEGREE OF FREEDOM 6 IS NOT ACTIVE ON NODE 332 INSTANCE PART-1-1 - 
             THIS BOUNDARY CONDITION IS IGNORED

 ***WARNING: DEGREE OF FREEDOM 6 IS NOT ACTIVE ON NODE 333 INSTANCE PART-1-1 - 
             THIS BOUNDARY CONDITION IS IGNORED

 ***WARNING: DEGREE OF FREEDOM 6 IS NOT ACTIVE ON NODE 334 INSTANCE PART-1-1 - 
             THIS BOUNDARY CONDITION IS IGNORED

 ***WARNING: DEGREE OF FREEDOM 6 IS NOT ACTIVE ON NODE 335 INSTANCE PART-1-1 - 
             THIS BOUNDARY CONDITION IS IGNORED

 ***WARNING: DEGREE OF FREEDOM 6 IS NOT ACTIVE ON NODE 336 INSTANCE PART-1-1 - 
             THIS BOUNDARY CONDITION IS IGNORED

 ***WARNING: DEGREE OF FREEDOM 6 IS NOT ACTIVE ON NODE 337 INSTANCE PART-1-1 - 
             THIS BOUNDARY CONDITION IS IGNORED

 ***WARNING: DEGREE OF FREEDOM 6 IS NOT ACTIVE ON NODE 338 INSTANCE PART-1-1 - 
             THIS BOUNDARY CONDITION IS IGNORED

 ***WARNING: DEGREE OF FREEDOM 6 IS NOT ACTIVE ON NODE 339 INSTANCE PART-1-1 - 
             THIS BOUNDARY CONDITION IS IGNORED

 ***WARNING: DEGREE OF FREEDOM 6 IS NOT ACTIVE ON NODE 340 INSTANCE PART-1-1 - 
             THIS BOUNDARY CONDITION IS IGNORED

 ***WARNING: DEGREE OF FREEDOM 6 IS NOT ACTIVE ON NODE 341 INSTANCE PART-1-1 - 
             THIS BOUNDARY CONDITION IS IGNORED

 ***WARNING: DEGREE OF FREEDOM 6 IS NOT ACTIVE ON NODE 342 INSTANCE PART-1-1 - 
             THIS BOUNDARY CONDITION IS IGNORED

 ***WARNING: DEGREE OF FREEDOM 6 IS NOT ACTIVE ON NODE 343 INSTANCE PART-1-1 - 
             THIS BOUNDARY CONDITION IS IGNORED

 ***WARNING: DEGREE OF FREEDOM 6 IS NOT ACTIVE ON NODE 344 INSTANCE PART-1-1 - 
             THIS BOUNDARY CONDITION IS IGNORED

 ***WARNING: DEGREE OF FREEDOM 6 IS NOT ACTIVE ON NODE 345 INSTANCE PART-1-1 - 
             THIS BOUNDARY CONDITION IS IGNORED

 ***WARNING: DEGREE OF FREEDOM 6 IS NOT ACTIVE ON NODE 346 INSTANCE PART-1-1 - 
             THIS BOUNDARY CONDITION IS IGNORED

 ***WARNING: DEGREE OF FREEDOM 6 IS NOT ACTIVE ON NODE 347 INSTANCE PART-1-1 - 
             THIS BOUNDARY CONDITION IS IGNORED

 ***WARNING: DEGREE OF FREEDOM 6 IS NOT ACTIVE ON NODE 348 INSTANCE PART-1-1 - 
             THIS BOUNDARY CONDITION IS IGNORED

 ***WARNING: DEGREE OF FREEDOM 6 IS NOT ACTIVE ON NODE 349 INSTANCE PART-1-1 - 
             THIS BOUNDARY CONDITION IS IGNORED

 ***WARNING: DEGREE OF FREEDOM 6 IS NOT ACTIVE ON NODE 350 INSTANCE PART-1-1 - 
             THIS BOUNDARY CONDITION IS IGNORED

 ***WARNING: DEGREE OF FREEDOM 6 IS NOT ACTIVE ON NODE 351 INSTANCE PART-1-1 - 
             THIS BOUNDARY CONDITION IS IGNORED

 ***WARNING: DEGREE OF FREEDOM 6 IS NOT ACTIVE ON NODE 352 INSTANCE PART-1-1 - 
             THIS BOUNDARY CONDITION IS IGNORED

 ***WARNING: DEGREE OF FREEDOM 6 IS NOT ACTIVE ON NODE 353 INSTANCE PART-1-1 - 
             THIS BOUNDARY CONDITION IS IGNORED

 ***WARNING: DEGREE OF FREEDOM 6 IS NOT ACTIVE ON NODE 354 INSTANCE PART-1-1 - 
             THIS BOUNDARY CONDITION IS IGNORED

 ***WARNING: DEGREE OF FREEDOM 6 IS NOT ACTIVE ON NODE 355 INSTANCE PART-1-1 - 
             THIS BOUNDARY CONDITION IS IGNORED

 ***WARNING: DEGREE OF FREEDOM 6 IS NOT ACTIVE ON NODE 356 INSTANCE PART-1-1 - 
             THIS BOUNDARY CONDITION IS IGNORED

 ***WARNING: DEGREE OF FREEDOM 6 IS NOT ACTIVE ON NODE 357 INSTANCE PART-1-1 - 
             THIS BOUNDARY CONDITION IS IGNORED

 ***WARNING: DEGREE OF FREEDOM 6 IS NOT ACTIVE ON NODE 358 INSTANCE PART-1-1 - 
             THIS BOUNDARY CONDITION IS IGNORED

 ***WARNING: DEGREE OF FREEDOM 6 IS NOT ACTIVE ON NODE 359 INSTANCE PART-1-1 - 
             THIS BOUNDARY CONDITION IS IGNORED

 ***WARNING: DEGREE OF FREEDOM 6 IS NOT ACTIVE ON NODE 360 INSTANCE PART-1-1 - 
             THIS BOUNDARY CONDITION IS IGNORED

 ***WARNING: DEGREE OF FREEDOM 6 IS NOT ACTIVE ON NODE 361 INSTANCE PART-1-1 - 
             THIS BOUNDARY CONDITION IS IGNORED

 ***WARNING: DEGREE OF FREEDOM 6 IS NOT ACTIVE ON NODE 362 INSTANCE PART-1-1 - 
             THIS BOUNDARY CONDITION IS IGNORED

 ***WARNING: DEGREE OF FREEDOM 6 IS NOT ACTIVE ON NODE 363 INSTANCE PART-1-1 - 
             THIS BOUNDARY CONDITION IS IGNORED

 ***WARNING: DEGREE OF FREEDOM 6 IS NOT ACTIVE ON NODE 364 INSTANCE PART-1-1 - 
             THIS BOUNDARY CONDITION IS IGNORED

 ***WARNING: DEGREE OF FREEDOM 6 IS NOT ACTIVE ON NODE 365 INSTANCE PART-1-1 - 
             THIS BOUNDARY CONDITION IS IGNORED

 ***WARNING: DEGREE OF FREEDOM 6 IS NOT ACTIVE ON NODE 366 INSTANCE PART-1-1 - 
             THIS BOUNDARY CONDITION IS IGNORED

 ***WARNING: DEGREE OF FREEDOM 6 IS NOT ACTIVE ON NODE 367 INSTANCE PART-1-1 - 
             THIS BOUNDARY CONDITION IS IGNORED

 ***WARNING: DEGREE OF FREEDOM 6 IS NOT ACTIVE ON NODE 368 INSTANCE PART-1-1 - 
             THIS BOUNDARY CONDITION IS IGNORED

 ***WARNING: DEGREE OF FREEDOM 6 IS NOT ACTIVE ON NODE 369 INSTANCE PART-1-1 - 
             THIS BOUNDARY CONDITION IS IGNORED

 ***WARNING: DEGREE OF FREEDOM 6 IS NOT ACTIVE ON NODE 370 INSTANCE PART-1-1 - 
             THIS BOUNDARY CONDITION IS IGNORED

 ***WARNING: DEGREE OF FREEDOM 6 IS NOT ACTIVE ON NODE 371 INSTANCE PART-1-1 - 
             THIS BOUNDARY CONDITION IS IGNORED

 ***WARNING: DEGREE OF FREEDOM 6 IS NOT ACTIVE ON NODE 372 INSTANCE PART-1-1 - 
             THIS BOUNDARY CONDITION IS IGNORED

 ***WARNING: DEGREE OF FREEDOM 6 IS NOT ACTIVE ON NODE 373 INSTANCE PART-1-1 - 
             THIS BOUNDARY CONDITION IS IGNORED

 ***WARNING: DEGREE OF FREEDOM 6 IS NOT ACTIVE ON NODE 374 INSTANCE PART-1-1 - 
             THIS BOUNDARY CONDITION IS IGNORED

 ***WARNING: DEGREE OF FREEDOM 6 IS NOT ACTIVE ON NODE 375 INSTANCE PART-1-1 - 
             THIS BOUNDARY CONDITION IS IGNORED

 ***WARNING: DEGREE OF FREEDOM 6 IS NOT ACTIVE ON NODE 376 INSTANCE PART-1-1 - 
             THIS BOUNDARY CONDITION IS IGNORED

 ***WARNING: DEGREE OF FREEDOM 6 IS NOT ACTIVE ON NODE 377 INSTANCE PART-1-1 - 
             THIS BOUNDARY CONDITION IS IGNORED

 ***WARNING: DEGREE OF FREEDOM 6 IS NOT ACTIVE ON NODE 378 INSTANCE PART-1-1 - 
             THIS BOUNDARY CONDITION IS IGNORED

 ***WARNING: DEGREE OF FREEDOM 6 IS NOT ACTIVE ON NODE 379 INSTANCE PART-1-1 - 
             THIS BOUNDARY CONDITION IS IGNORED

 ***WARNING: DEGREE OF FREEDOM 6 IS NOT ACTIVE ON NODE 380 INSTANCE PART-1-1 - 
             THIS BOUNDARY CONDITION IS IGNORED

 ***WARNING: DEGREE OF FREEDOM 6 IS NOT ACTIVE ON NODE 381 INSTANCE PART-1-1 - 
             THIS BOUNDARY CONDITION IS IGNORED

 ***WARNING: DEGREE OF FREEDOM 6 IS NOT ACTIVE ON NODE 382 INSTANCE PART-1-1 - 
             THIS BOUNDARY CONDITION IS IGNORED

 ***WARNING: DEGREE OF FREEDOM 6 IS NOT ACTIVE ON NODE 383 INSTANCE PART-1-1 - 
             THIS BOUNDARY CONDITION IS IGNORED

 ***WARNING: DEGREE OF FREEDOM 6 IS NOT ACTIVE ON NODE 384 INSTANCE PART-1-1 - 
             THIS BOUNDARY CONDITION IS IGNORED

 ***WARNING: DEGREE OF FREEDOM 6 IS NOT ACTIVE ON NODE 385 INSTANCE PART-1-1 - 
             THIS BOUNDARY CONDITION IS IGNORED

 ***WARNING: DEGREE OF FREEDOM 6 IS NOT ACTIVE ON NODE 386 INSTANCE PART-1-1 - 
             THIS BOUNDARY CONDITION IS IGNORED

 ***WARNING: DEGREE OF FREEDOM 6 IS NOT ACTIVE ON NODE 387 INSTANCE PART-1-1 - 
             THIS BOUNDARY CONDITION IS IGNORED

 ***WARNING: DEGREE OF FREEDOM 6 IS NOT ACTIVE ON NODE 388 INSTANCE PART-1-1 - 
             THIS BOUNDARY CONDITION IS IGNORED

 ***WARNING: DEGREE OF FREEDOM 6 IS NOT ACTIVE ON NODE 389 INSTANCE PART-1-1 - 
             THIS BOUNDARY CONDITION IS IGNORED

 ***WARNING: DEGREE OF FREEDOM 6 IS NOT ACTIVE ON NODE 390 INSTANCE PART-1-1 - 
             THIS BOUNDARY CONDITION IS IGNORED

 ***WARNING: DEGREE OF FREEDOM 6 IS NOT ACTIVE ON NODE 391 INSTANCE PART-1-1 - 
             THIS BOUNDARY CONDITION IS IGNORED

 ***WARNING: DEGREE OF FREEDOM 6 IS NOT ACTIVE ON NODE 392 INSTANCE PART-1-1 - 
             THIS BOUNDARY CONDITION IS IGNORED

 ***WARNING: DEGREE OF FREEDOM 6 IS NOT ACTIVE ON NODE 393 INSTANCE PART-1-1 - 
             THIS BOUNDARY CONDITION IS IGNORED

 ***WARNING: DEGREE OF FREEDOM 6 IS NOT ACTIVE ON NODE 394 INSTANCE PART-1-1 - 
             THIS BOUNDARY CONDITION IS IGNORED

 ***WARNING: DEGREE OF FREEDOM 6 IS NOT ACTIVE ON NODE 395 INSTANCE PART-1-1 - 
             THIS BOUNDARY CONDITION IS IGNORED

 ***WARNING: DEGREE OF FREEDOM 6 IS NOT ACTIVE ON NODE 396 INSTANCE PART-1-1 - 
             THIS BOUNDARY CONDITION IS IGNORED

 ***WARNING: DEGREE OF FREEDOM 6 IS NOT ACTIVE ON NODE 397 INSTANCE PART-1-1 - 
             THIS BOUNDARY CONDITION IS IGNORED

 ***WARNING: DEGREE OF FREEDOM 6 IS NOT ACTIVE ON NODE 398 INSTANCE PART-1-1 - 
             THIS BOUNDARY CONDITION IS IGNORED

 ***WARNING: DEGREE OF FREEDOM 6 IS NOT ACTIVE ON NODE 399 INSTANCE PART-1-1 - 
             THIS BOUNDARY CONDITION IS IGNORED

 ***WARNING: DEGREE OF FREEDOM 6 IS NOT ACTIVE ON NODE 400 INSTANCE PART-1-1 - 
             THIS BOUNDARY CONDITION IS IGNORED

 ***WARNING: DEGREE OF FREEDOM 6 IS NOT ACTIVE ON NODE 401 INSTANCE PART-1-1 - 
             THIS BOUNDARY CONDITION IS IGNORED

 ***WARNING: DEGREE OF FREEDOM 6 IS NOT ACTIVE ON NODE 402 INSTANCE PART-1-1 - 
             THIS BOUNDARY CONDITION IS IGNORED

 ***WARNING: DEGREE OF FREEDOM 6 IS NOT ACTIVE ON NODE 403 INSTANCE PART-1-1 - 
             THIS BOUNDARY CONDITION IS IGNORED

 ***WARNING: DEGREE OF FREEDOM 6 IS NOT ACTIVE ON NODE 404 INSTANCE PART-1-1 - 
             THIS BOUNDARY CONDITION IS IGNORED

 ***WARNING: DEGREE OF FREEDOM 6 IS NOT ACTIVE ON NODE 405 INSTANCE PART-1-1 - 
             THIS BOUNDARY CONDITION IS IGNORED

 ***WARNING: DEGREE OF FREEDOM 6 IS NOT ACTIVE ON NODE 406 INSTANCE PART-1-1 - 
             THIS BOUNDARY CONDITION IS IGNORED

 ***WARNING: DEGREE OF FREEDOM 6 IS NOT ACTIVE ON NODE 407 INSTANCE PART-1-1 - 
             THIS BOUNDARY CONDITION IS IGNORED

 ***WARNING: DEGREE OF FREEDOM 6 IS NOT ACTIVE ON NODE 408 INSTANCE PART-1-1 - 
             THIS BOUNDARY CONDITION IS IGNORED

 ***WARNING: DEGREE OF FREEDOM 6 IS NOT ACTIVE ON NODE 409 INSTANCE PART-1-1 - 
             THIS BOUNDARY CONDITION IS IGNORED

 ***WARNING: DEGREE OF FREEDOM 6 IS NOT ACTIVE ON NODE 410 INSTANCE PART-1-1 - 
             THIS BOUNDARY CONDITION IS IGNORED

 ***WARNING: DEGREE OF FREEDOM 6 IS NOT ACTIVE ON NODE 411 INSTANCE PART-1-1 - 
             THIS BOUNDARY CONDITION IS IGNORED

 ***WARNING: DEGREE OF FREEDOM 6 IS NOT ACTIVE ON NODE 412 INSTANCE PART-1-1 - 
             THIS BOUNDARY CONDITION IS IGNORED

 ***WARNING: DEGREE OF FREEDOM 6 IS NOT ACTIVE ON NODE 413 INSTANCE PART-1-1 - 
             THIS BOUNDARY CONDITION IS IGNORED

 ***WARNING: DEGREE OF FREEDOM 6 IS NOT ACTIVE ON NODE 414 INSTANCE PART-1-1 - 
             THIS BOUNDARY CONDITION IS IGNORED

 ***WARNING: DEGREE OF FREEDOM 6 IS NOT ACTIVE ON NODE 415 INSTANCE PART-1-1 - 
             THIS BOUNDARY CONDITION IS IGNORED

 ***WARNING: DEGREE OF FREEDOM 6 IS NOT ACTIVE ON NODE 416 INSTANCE PART-1-1 - 
             THIS BOUNDARY CONDITION IS IGNORED

 ***WARNING: DEGREE OF FREEDOM 6 IS NOT ACTIVE ON NODE 417 INSTANCE PART-1-1 - 
             THIS BOUNDARY CONDITION IS IGNORED

 ***WARNING: DEGREE OF FREEDOM 6 IS NOT ACTIVE ON NODE 418 INSTANCE PART-1-1 - 
             THIS BOUNDARY CONDITION IS IGNORED

 ***WARNING: DEGREE OF FREEDOM 6 IS NOT ACTIVE ON NODE 419 INSTANCE PART-1-1 - 
             THIS BOUNDARY CONDITION IS IGNORED

 ***WARNING: DEGREE OF FREEDOM 6 IS NOT ACTIVE ON NODE 420 INSTANCE PART-1-1 - 
             THIS BOUNDARY CONDITION IS IGNORED

 ***WARNING: DEGREE OF FREEDOM 6 IS NOT ACTIVE ON NODE 421 INSTANCE PART-1-1 - 
             THIS BOUNDARY CONDITION IS IGNORED

 ***WARNING: DEGREE OF FREEDOM 6 IS NOT ACTIVE ON NODE 422 INSTANCE PART-1-1 - 
             THIS BOUNDARY CONDITION IS IGNORED

 ***WARNING: DEGREE OF FREEDOM 6 IS NOT ACTIVE ON NODE 423 INSTANCE PART-1-1 - 
             THIS BOUNDARY CONDITION IS IGNORED

 ***WARNING: DEGREE OF FREEDOM 6 IS NOT ACTIVE ON NODE 424 INSTANCE PART-1-1 - 
             THIS BOUNDARY CONDITION IS IGNORED

 ***WARNING: DEGREE OF FREEDOM 6 IS NOT ACTIVE ON NODE 425 INSTANCE PART-1-1 - 
             THIS BOUNDARY CONDITION IS IGNORED

 ***WARNING: DEGREE OF FREEDOM 6 IS NOT ACTIVE ON NODE 426 INSTANCE PART-1-1 - 
             THIS BOUNDARY CONDITION IS IGNORED

 ***WARNING: DEGREE OF FREEDOM 6 IS NOT ACTIVE ON NODE 427 INSTANCE PART-1-1 - 
             THIS BOUNDARY CONDITION IS IGNORED

 ***WARNING: DEGREE OF FREEDOM 6 IS NOT ACTIVE ON NODE 428 INSTANCE PART-1-1 - 
             THIS BOUNDARY CONDITION IS IGNORED

 ***WARNING: DEGREE OF FREEDOM 6 IS NOT ACTIVE ON NODE 429 INSTANCE PART-1-1 - 
             THIS BOUNDARY CONDITION IS IGNORED

 ***WARNING: DEGREE OF FREEDOM 6 IS NOT ACTIVE ON NODE 430 INSTANCE PART-1-1 - 
             THIS BOUNDARY CONDITION IS IGNORED

 ***WARNING: DEGREE OF FREEDOM 6 IS NOT ACTIVE ON NODE 431 INSTANCE PART-1-1 - 
             THIS BOUNDARY CONDITION IS IGNORED

 ***WARNING: DEGREE OF FREEDOM 6 IS NOT ACTIVE ON NODE 443 INSTANCE PART-1-1 - 
             THIS BOUNDARY CONDITION IS IGNORED

 ***WARNING: DEGREE OF FREEDOM 6 IS NOT ACTIVE ON NODE 444 INSTANCE PART-1-1 - 
             THIS BOUNDARY CONDITION IS IGNORED

 ***WARNING: DEGREE OF FREEDOM 6 IS NOT ACTIVE ON NODE 445 INSTANCE PART-1-1 - 
             THIS BOUNDARY CONDITION IS IGNORED

 ***WARNING: DEGREE OF FREEDOM 6 IS NOT ACTIVE ON NODE 446 INSTANCE PART-1-1 - 
             THIS BOUNDARY CONDITION IS IGNORED

 ***WARNING: DEGREE OF FREEDOM 6 IS NOT ACTIVE ON NODE 447 INSTANCE PART-1-1 - 
             THIS BOUNDARY CONDITION IS IGNORED

 ***WARNING: DEGREE OF FREEDOM 6 IS NOT ACTIVE ON NODE 448 INSTANCE PART-1-1 - 
             THIS BOUNDARY CONDITION IS IGNORED

 ***WARNING: DEGREE OF FREEDOM 6 IS NOT ACTIVE ON NODE 449 INSTANCE PART-1-1 - 
             THIS BOUNDARY CONDITION IS IGNORED

 ***WARNING: DEGREE OF FREEDOM 6 IS NOT ACTIVE ON NODE 450 INSTANCE PART-1-1 - 
             THIS BOUNDARY CONDITION IS IGNORED

 ***WARNING: DEGREE OF FREEDOM 6 IS NOT ACTIVE ON NODE 451 INSTANCE PART-1-1 - 
             THIS BOUNDARY CONDITION IS IGNORED

 ***WARNING: DEGREE OF FREEDOM 6 IS NOT ACTIVE ON NODE 452 INSTANCE PART-1-1 - 
             THIS BOUNDARY CONDITION IS IGNORED

 ***WARNING: DEGREE OF FREEDOM 6 IS NOT ACTIVE ON NODE 453 INSTANCE PART-1-1 - 
             THIS BOUNDARY CONDITION IS IGNORED

 ***WARNING: DEGREE OF FREEDOM 6 IS NOT ACTIVE ON NODE 454 INSTANCE PART-1-1 - 
             THIS BOUNDARY CONDITION IS IGNORED

 ***WARNING: DEGREE OF FREEDOM 6 IS NOT ACTIVE ON NODE 455 INSTANCE PART-1-1 - 
             THIS BOUNDARY CONDITION IS IGNORED

 ***WARNING: DEGREE OF FREEDOM 6 IS NOT ACTIVE ON NODE 456 INSTANCE PART-1-1 - 
             THIS BOUNDARY CONDITION IS IGNORED

 ***WARNING: DEGREE OF FREEDOM 6 IS NOT ACTIVE ON NODE 457 INSTANCE PART-1-1 - 
             THIS BOUNDARY CONDITION IS IGNORED

 ***WARNING: DEGREE OF FREEDOM 6 IS NOT ACTIVE ON NODE 458 INSTANCE PART-1-1 - 
             THIS BOUNDARY CONDITION IS IGNORED

 ***WARNING: DEGREE OF FREEDOM 6 IS NOT ACTIVE ON NODE 459 INSTANCE PART-1-1 - 
             THIS BOUNDARY CONDITION IS IGNORED

 ***WARNING: DEGREE OF FREEDOM 6 IS NOT ACTIVE ON NODE 460 INSTANCE PART-1-1 - 
             THIS BOUNDARY CONDITION IS IGNORED

 ***WARNING: DEGREE OF FREEDOM 6 IS NOT ACTIVE ON NODE 461 INSTANCE PART-1-1 - 
             THIS BOUNDARY CONDITION IS IGNORED

 ***WARNING: DEGREE OF FREEDOM 6 IS NOT ACTIVE ON NODE 462 INSTANCE PART-1-1 - 
             THIS BOUNDARY CONDITION IS IGNORED

 ***WARNING: DEGREE OF FREEDOM 6 IS NOT ACTIVE ON NODE 463 INSTANCE PART-1-1 - 
             THIS BOUNDARY CONDITION IS IGNORED

 ***WARNING: DEGREE OF FREEDOM 6 IS NOT ACTIVE ON NODE 464 INSTANCE PART-1-1 - 
             THIS BOUNDARY CONDITION IS IGNORED

 ***WARNING: DEGREE OF FREEDOM 6 IS NOT ACTIVE ON NODE 465 INSTANCE PART-1-1 - 
             THIS BOUNDARY CONDITION IS IGNORED

 ***WARNING: DEGREE OF FREEDOM 6 IS NOT ACTIVE ON NODE 466 INSTANCE PART-1-1 - 
             THIS BOUNDARY CONDITION IS IGNORED

 ***WARNING: DEGREE OF FREEDOM 6 IS NOT ACTIVE ON NODE 467 INSTANCE PART-1-1 - 
             THIS BOUNDARY CONDITION IS IGNORED

 ***WARNING: DEGREE OF FREEDOM 6 IS NOT ACTIVE ON NODE 468 INSTANCE PART-1-1 - 
             THIS BOUNDARY CONDITION IS IGNORED

 ***WARNING: DEGREE OF FREEDOM 6 IS NOT ACTIVE ON NODE 469 INSTANCE PART-1-1 - 
             THIS BOUNDARY CONDITION IS IGNORED

 ***WARNING: DEGREE OF FREEDOM 6 IS NOT ACTIVE ON NODE 470 INSTANCE PART-1-1 - 
             THIS BOUNDARY CONDITION IS IGNORED

 ***WARNING: DEGREE OF FREEDOM 6 IS NOT ACTIVE ON NODE 471 INSTANCE PART-1-1 - 
             THIS BOUNDARY CONDITION IS IGNORED

 ***WARNING: DEGREE OF FREEDOM 6 IS NOT ACTIVE ON NODE 472 INSTANCE PART-1-1 - 
             THIS BOUNDARY CONDITION IS IGNORED

 ***WARNING: DEGREE OF FREEDOM 6 IS NOT ACTIVE ON NODE 473 INSTANCE PART-1-1 - 
             THIS BOUNDARY CONDITION IS IGNORED

 ***WARNING: DEGREE OF FREEDOM 6 IS NOT ACTIVE ON NODE 474 INSTANCE PART-1-1 - 
             THIS BOUNDARY CONDITION IS IGNORED

 ***WARNING: DEGREE OF FREEDOM 6 IS NOT ACTIVE ON NODE 475 INSTANCE PART-1-1 - 
             THIS BOUNDARY CONDITION IS IGNORED

 ***WARNING: DEGREE OF FREEDOM 6 IS NOT ACTIVE ON NODE 476 INSTANCE PART-1-1 - 
             THIS BOUNDARY CONDITION IS IGNORED

 ***WARNING: DEGREE OF FREEDOM 6 IS NOT ACTIVE ON NODE 477 INSTANCE PART-1-1 - 
             THIS BOUNDARY CONDITION IS IGNORED

 ***WARNING: DEGREE OF FREEDOM 6 IS NOT ACTIVE ON NODE 478 INSTANCE PART-1-1 - 
             THIS BOUNDARY CONDITION IS IGNORED

 ***WARNING: DEGREE OF FREEDOM 6 IS NOT ACTIVE ON NODE 479 INSTANCE PART-1-1 - 
             THIS BOUNDARY CONDITION IS IGNORED

 ***WARNING: DEGREE OF FREEDOM 6 IS NOT ACTIVE ON NODE 480 INSTANCE PART-1-1 - 
             THIS BOUNDARY CONDITION IS IGNORED

 ***WARNING: DEGREE OF FREEDOM 6 IS NOT ACTIVE ON NODE 481 INSTANCE PART-1-1 - 
             THIS BOUNDARY CONDITION IS IGNORED

 ***WARNING: DEGREE OF FREEDOM 6 IS NOT ACTIVE ON NODE 482 INSTANCE PART-1-1 - 
             THIS BOUNDARY CONDITION IS IGNORED

 ***WARNING: DEGREE OF FREEDOM 6 IS NOT ACTIVE ON NODE 483 INSTANCE PART-1-1 - 
             THIS BOUNDARY CONDITION IS IGNORED

 ***WARNING: DEGREE OF FREEDOM 6 IS NOT ACTIVE ON NODE 484 INSTANCE PART-1-1 - 
             THIS BOUNDARY CONDITION IS IGNORED

 ***WARNING: DEGREE OF FREEDOM 6 IS NOT ACTIVE ON NODE 485 INSTANCE PART-1-1 - 
             THIS BOUNDARY CONDITION IS IGNORED

 ***WARNING: DEGREE OF FREEDOM 6 IS NOT ACTIVE ON NODE 486 INSTANCE PART-1-1 - 
             THIS BOUNDARY CONDITION IS IGNORED

 ***WARNING: DEGREE OF FREEDOM 6 IS NOT ACTIVE ON NODE 487 INSTANCE PART-1-1 - 
             THIS BOUNDARY CONDITION IS IGNORED

 ***WARNING: DEGREE OF FREEDOM 6 IS NOT ACTIVE ON NODE 488 INSTANCE PART-1-1 - 
             THIS BOUNDARY CONDITION IS IGNORED

 ***WARNING: DEGREE OF FREEDOM 6 IS NOT ACTIVE ON NODE 489 INSTANCE PART-1-1 - 
             THIS BOUNDARY CONDITION IS IGNORED

 ***WARNING: DEGREE OF FREEDOM 6 IS NOT ACTIVE ON NODE 490 INSTANCE PART-1-1 - 
             THIS BOUNDARY CONDITION IS IGNORED

 ***WARNING: DEGREE OF FREEDOM 6 IS NOT ACTIVE ON NODE 491 INSTANCE PART-1-1 - 
             THIS BOUNDARY CONDITION IS IGNORED

 ***WARNING: DEGREE OF FREEDOM 6 IS NOT ACTIVE ON NODE 492 INSTANCE PART-1-1 - 
             THIS BOUNDARY CONDITION IS IGNORED

 ***WARNING: DEGREE OF FREEDOM 6 IS NOT ACTIVE ON NODE 493 INSTANCE PART-1-1 - 
             THIS BOUNDARY CONDITION IS IGNORED

 ***WARNING: DEGREE OF FREEDOM 6 IS NOT ACTIVE ON NODE 494 INSTANCE PART-1-1 - 
             THIS BOUNDARY CONDITION IS IGNORED

 ***WARNING: DEGREE OF FREEDOM 6 IS NOT ACTIVE ON NODE 495 INSTANCE PART-1-1 - 
             THIS BOUNDARY CONDITION IS IGNORED

 ***WARNING: DEGREE OF FREEDOM 6 IS NOT ACTIVE ON NODE 496 INSTANCE PART-1-1 - 
             THIS BOUNDARY CONDITION IS IGNORED

 ***WARNING: DEGREE OF FREEDOM 6 IS NOT ACTIVE ON NODE 497 INSTANCE PART-1-1 - 
             THIS BOUNDARY CONDITION IS IGNORED

 ***WARNING: DEGREE OF FREEDOM 6 IS NOT ACTIVE ON NODE 498 INSTANCE PART-1-1 - 
             THIS BOUNDARY CONDITION IS IGNORED

 ***WARNING: DEGREE OF FREEDOM 6 IS NOT ACTIVE ON NODE 499 INSTANCE PART-1-1 - 
             THIS BOUNDARY CONDITION IS IGNORED

 ***WARNING: DEGREE OF FREEDOM 6 IS NOT ACTIVE ON NODE 500 INSTANCE PART-1-1 - 
             THIS BOUNDARY CONDITION IS IGNORED

 ***WARNING: DEGREE OF FREEDOM 6 IS NOT ACTIVE ON NODE 501 INSTANCE PART-1-1 - 
             THIS BOUNDARY CONDITION IS IGNORED

 ***WARNING: DEGREE OF FREEDOM 6 IS NOT ACTIVE ON NODE 502 INSTANCE PART-1-1 - 
             THIS BOUNDARY CONDITION IS IGNORED

 ***WARNING: DEGREE OF FREEDOM 6 IS NOT ACTIVE ON NODE 503 INSTANCE PART-1-1 - 
             THIS BOUNDARY CONDITION IS IGNORED

 ***WARNING: DEGREE OF FREEDOM 6 IS NOT ACTIVE ON NODE 504 INSTANCE PART-1-1 - 
             THIS BOUNDARY CONDITION IS IGNORED

 ***WARNING: DEGREE OF FREEDOM 6 IS NOT ACTIVE ON NODE 505 INSTANCE PART-1-1 - 
             THIS BOUNDARY CONDITION IS IGNORED

 ***WARNING: DEGREE OF FREEDOM 6 IS NOT ACTIVE ON NODE 506 INSTANCE PART-1-1 - 
             THIS BOUNDARY CONDITION IS IGNORED

 ***WARNING: DEGREE OF FREEDOM 6 IS NOT ACTIVE ON NODE 507 INSTANCE PART-1-1 - 
             THIS BOUNDARY CONDITION IS IGNORED

 ***WARNING: DEGREE OF FREEDOM 6 IS NOT ACTIVE ON NODE 508 INSTANCE PART-1-1 - 
             THIS BOUNDARY CONDITION IS IGNORED

 ***WARNING: DEGREE OF FREEDOM 6 IS NOT ACTIVE ON NODE 509 INSTANCE PART-1-1 - 
             THIS BOUNDARY CONDITION IS IGNORED

 ***WARNING: DEGREE OF FREEDOM 6 IS NOT ACTIVE ON NODE 2713 INSTANCE PART-1-1 - 
             THIS BOUNDARY CONDITION IS IGNORED

 ***WARNING: DEGREE OF FREEDOM 6 IS NOT ACTIVE ON NODE 2714 INSTANCE PART-1-1 - 
             THIS BOUNDARY CONDITION IS IGNORED

 ***WARNING: DEGREE OF FREEDOM 6 IS NOT ACTIVE ON NODE 2715 INSTANCE PART-1-1 - 
             THIS BOUNDARY CONDITION IS IGNORED

 ***WARNING: DEGREE OF FREEDOM 6 IS NOT ACTIVE ON NODE 2716 INSTANCE PART-1-1 - 
             THIS BOUNDARY CONDITION IS IGNORED

 ***WARNING: DEGREE OF FREEDOM 6 IS NOT ACTIVE ON NODE 2717 INSTANCE PART-1-1 - 
             THIS BOUNDARY CONDITION IS IGNORED

 ***WARNING: DEGREE OF FREEDOM 6 IS NOT ACTIVE ON NODE 2718 INSTANCE PART-1-1 - 
             THIS BOUNDARY CONDITION IS IGNORED

 ***WARNING: DEGREE OF FREEDOM 6 IS NOT ACTIVE ON NODE 2719 INSTANCE PART-1-1 - 
             THIS BOUNDARY CONDITION IS IGNORED

 ***WARNING: DEGREE OF FREEDOM 6 IS NOT ACTIVE ON NODE 2720 INSTANCE PART-1-1 - 
             THIS BOUNDARY CONDITION IS IGNORED

 ***WARNING: DEGREE OF FREEDOM 6 IS NOT ACTIVE ON NODE 2721 INSTANCE PART-1-1 - 
             THIS BOUNDARY CONDITION IS IGNORED

 ***WARNING: DEGREE OF FREEDOM 6 IS NOT ACTIVE ON NODE 2722 INSTANCE PART-1-1 - 
             THIS BOUNDARY CONDITION IS IGNORED

 ***WARNING: DEGREE OF FREEDOM 6 IS NOT ACTIVE ON NODE 2723 INSTANCE PART-1-1 - 
             THIS BOUNDARY CONDITION IS IGNORED

 ***WARNING: DEGREE OF FREEDOM 6 IS NOT ACTIVE ON NODE 2724 INSTANCE PART-1-1 - 
             THIS BOUNDARY CONDITION IS IGNORED

 ***WARNING: DEGREE OF FREEDOM 6 IS NOT ACTIVE ON NODE 2725 INSTANCE PART-1-1 - 
             THIS BOUNDARY CONDITION IS IGNORED

 ***WARNING: DEGREE OF FREEDOM 6 IS NOT ACTIVE ON NODE 2726 INSTANCE PART-1-1 - 
             THIS BOUNDARY CONDITION IS IGNORED

 ***WARNING: DEGREE OF FREEDOM 6 IS NOT ACTIVE ON NODE 2727 INSTANCE PART-1-1 - 
             THIS BOUNDARY CONDITION IS IGNORED

 ***WARNING: DEGREE OF FREEDOM 6 IS NOT ACTIVE ON NODE 2728 INSTANCE PART-1-1 - 
             THIS BOUNDARY CONDITION IS IGNORED

 ***WARNING: DEGREE OF FREEDOM 6 IS NOT ACTIVE ON NODE 2729 INSTANCE PART-1-1 - 
             THIS BOUNDARY CONDITION IS IGNORED

 ***WARNING: DEGREE OF FREEDOM 6 IS NOT ACTIVE ON NODE 2730 INSTANCE PART-1-1 - 
             THIS BOUNDARY CONDITION IS IGNORED

 ***WARNING: DEGREE OF FREEDOM 6 IS NOT ACTIVE ON NODE 2731 INSTANCE PART-1-1 - 
             THIS BOUNDARY CONDITION IS IGNORED

 ***WARNING: DEGREE OF FREEDOM 6 IS NOT ACTIVE ON NODE 2732 INSTANCE PART-1-1 - 
             THIS BOUNDARY CONDITION IS IGNORED

 ***WARNING: DEGREE OF FREEDOM 6 IS NOT ACTIVE ON NODE 2733 INSTANCE PART-1-1 - 
             THIS BOUNDARY CONDITION IS IGNORED

 ***WARNING: DEGREE OF FREEDOM 6 IS NOT ACTIVE ON NODE 2734 INSTANCE PART-1-1 - 
             THIS BOUNDARY CONDITION IS IGNORED

 ***WARNING: DEGREE OF FREEDOM 6 IS NOT ACTIVE ON NODE 2735 INSTANCE PART-1-1 - 
             THIS BOUNDARY CONDITION IS IGNORED

 ***WARNING: DEGREE OF FREEDOM 6 IS NOT ACTIVE ON NODE 2736 INSTANCE PART-1-1 - 
             THIS BOUNDARY CONDITION IS IGNORED

 ***WARNING: DEGREE OF FREEDOM 6 IS NOT ACTIVE ON NODE 2737 INSTANCE PART-1-1 - 
             THIS BOUNDARY CONDITION IS IGNORED

 ***WARNING: DEGREE OF FREEDOM 6 IS NOT ACTIVE ON NODE 2738 INSTANCE PART-1-1 - 
             THIS BOUNDARY CONDITION IS IGNORED

 ***WARNING: DEGREE OF FREEDOM 6 IS NOT ACTIVE ON NODE 2739 INSTANCE PART-1-1 - 
             THIS BOUNDARY CONDITION IS IGNORED

 ***WARNING: DEGREE OF FREEDOM 6 IS NOT ACTIVE ON NODE 2740 INSTANCE PART-1-1 - 
             THIS BOUNDARY CONDITION IS IGNORED

 ***WARNING: DEGREE OF FREEDOM 6 IS NOT ACTIVE ON NODE 2741 INSTANCE PART-1-1 - 
             THIS BOUNDARY CONDITION IS IGNORED

 ***WARNING: DEGREE OF FREEDOM 6 IS NOT ACTIVE ON NODE 2742 INSTANCE PART-1-1 - 
             THIS BOUNDARY CONDITION IS IGNORED

 ***WARNING: DEGREE OF FREEDOM 6 IS NOT ACTIVE ON NODE 2743 INSTANCE PART-1-1 - 
             THIS BOUNDARY CONDITION IS IGNORED

 ***WARNING: DEGREE OF FREEDOM 6 IS NOT ACTIVE ON NODE 2744 INSTANCE PART-1-1 - 
             THIS BOUNDARY CONDITION IS IGNORED

 ***WARNING: DEGREE OF FREEDOM 6 IS NOT ACTIVE ON NODE 2745 INSTANCE PART-1-1 - 
             THIS BOUNDARY CONDITION IS IGNORED

 ***WARNING: DEGREE OF FREEDOM 6 IS NOT ACTIVE ON NODE 2746 INSTANCE PART-1-1 - 
             THIS BOUNDARY CONDITION IS IGNORED

 ***WARNING: DEGREE OF FREEDOM 6 IS NOT ACTIVE ON NODE 2747 INSTANCE PART-1-1 - 
             THIS BOUNDARY CONDITION IS IGNORED

 ***WARNING: DEGREE OF FREEDOM 6 IS NOT ACTIVE ON NODE 2748 INSTANCE PART-1-1 - 
             THIS BOUNDARY CONDITION IS IGNORED

 ***WARNING: DEGREE OF FREEDOM 6 IS NOT ACTIVE ON NODE 2749 INSTANCE PART-1-1 - 
             THIS BOUNDARY CONDITION IS IGNORED

 ***WARNING: DEGREE OF FREEDOM 6 IS NOT ACTIVE ON NODE 2750 INSTANCE PART-1-1 - 
             THIS BOUNDARY CONDITION IS IGNORED

 ***WARNING: DEGREE OF FREEDOM 6 IS NOT ACTIVE ON NODE 2751 INSTANCE PART-1-1 - 
             THIS BOUNDARY CONDITION IS IGNORED

 ***WARNING: DEGREE OF FREEDOM 6 IS NOT ACTIVE ON NODE 2752 INSTANCE PART-1-1 - 
             THIS BOUNDARY CONDITION IS IGNORED

 ***WARNING: DEGREE OF FREEDOM 6 IS NOT ACTIVE ON NODE 2753 INSTANCE PART-1-1 - 
             THIS BOUNDARY CONDITION IS IGNORED

 ***WARNING: DEGREE OF FREEDOM 6 IS NOT ACTIVE ON NODE 2754 INSTANCE PART-1-1 - 
             THIS BOUNDARY CONDITION IS IGNORED

 ***WARNING: DEGREE OF FREEDOM 6 IS NOT ACTIVE ON NODE 2755 INSTANCE PART-1-1 - 
             THIS BOUNDARY CONDITION IS IGNORED

 ***WARNING: DEGREE OF FREEDOM 6 IS NOT ACTIVE ON NODE 2756 INSTANCE PART-1-1 - 
             THIS BOUNDARY CONDITION IS IGNORED

 ***WARNING: DEGREE OF FREEDOM 6 IS NOT ACTIVE ON NODE 2757 INSTANCE PART-1-1 - 
             THIS BOUNDARY CONDITION IS IGNORED

 ***WARNING: DEGREE OF FREEDOM 6 IS NOT ACTIVE ON NODE 2758 INSTANCE PART-1-1 - 
             THIS BOUNDARY CONDITION IS IGNORED

 ***WARNING: DEGREE OF FREEDOM 6 IS NOT ACTIVE ON NODE 2759 INSTANCE PART-1-1 - 
             THIS BOUNDARY CONDITION IS IGNORED

 ***WARNING: DEGREE OF FREEDOM 6 IS NOT ACTIVE ON NODE 2760 INSTANCE PART-1-1 - 
             THIS BOUNDARY CONDITION IS IGNORED

 ***WARNING: DEGREE OF FREEDOM 6 IS NOT ACTIVE ON NODE 2761 INSTANCE PART-1-1 - 
             THIS BOUNDARY CONDITION IS IGNORED

 ***WARNING: DEGREE OF FREEDOM 6 IS NOT ACTIVE ON NODE 2762 INSTANCE PART-1-1 - 
             THIS BOUNDARY CONDITION IS IGNORED

 ***WARNING: DEGREE OF FREEDOM 6 IS NOT ACTIVE ON NODE 2763 INSTANCE PART-1-1 - 
             THIS BOUNDARY CONDITION IS IGNORED

 ***WARNING: DEGREE OF FREEDOM 6 IS NOT ACTIVE ON NODE 2764 INSTANCE PART-1-1 - 
             THIS BOUNDARY CONDITION IS IGNORED

 ***WARNING: DEGREE OF FREEDOM 6 IS NOT ACTIVE ON NODE 2765 INSTANCE PART-1-1 - 
             THIS BOUNDARY CONDITION IS IGNORED

 ***WARNING: DEGREE OF FREEDOM 6 IS NOT ACTIVE ON NODE 2766 INSTANCE PART-1-1 - 
             THIS BOUNDARY CONDITION IS IGNORED

 ***WARNING: DEGREE OF FREEDOM 6 IS NOT ACTIVE ON NODE 2767 INSTANCE PART-1-1 - 
             THIS BOUNDARY CONDITION IS IGNORED

 ***WARNING: DEGREE OF FREEDOM 6 IS NOT ACTIVE ON NODE 2768 INSTANCE PART-1-1 - 
             THIS BOUNDARY CONDITION IS IGNORED

 ***WARNING: DEGREE OF FREEDOM 6 IS NOT ACTIVE ON NODE 2769 INSTANCE PART-1-1 - 
             THIS BOUNDARY CONDITION IS IGNORED

 ***WARNING: DEGREE OF FREEDOM 6 IS NOT ACTIVE ON NODE 2770 INSTANCE PART-1-1 - 
             THIS BOUNDARY CONDITION IS IGNORED

 ***WARNING: DEGREE OF FREEDOM 6 IS NOT ACTIVE ON NODE 2771 INSTANCE PART-1-1 - 
             THIS BOUNDARY CONDITION IS IGNORED

 ***WARNING: DEGREE OF FREEDOM 6 IS NOT ACTIVE ON NODE 2772 INSTANCE PART-1-1 - 
             THIS BOUNDARY CONDITION IS IGNORED

 ***WARNING: DEGREE OF FREEDOM 6 IS NOT ACTIVE ON NODE 2773 INSTANCE PART-1-1 - 
             THIS BOUNDARY CONDITION IS IGNORED

 ***WARNING: DEGREE OF FREEDOM 6 IS NOT ACTIVE ON NODE 2774 INSTANCE PART-1-1 - 
             THIS BOUNDARY CONDITION IS IGNORED

 ***WARNING: DEGREE OF FREEDOM 6 IS NOT ACTIVE ON NODE 2775 INSTANCE PART-1-1 - 
             THIS BOUNDARY CONDITION IS IGNORED

 ***WARNING: DEGREE OF FREEDOM 6 IS NOT ACTIVE ON NODE 2776 INSTANCE PART-1-1 - 
             THIS BOUNDARY CONDITION IS IGNORED

 ***WARNING: DEGREE OF FREEDOM 6 IS NOT ACTIVE ON NODE 2777 INSTANCE PART-1-1 - 
             THIS BOUNDARY CONDITION IS IGNORED

 ***WARNING: DEGREE OF FREEDOM 6 IS NOT ACTIVE ON NODE 2778 INSTANCE PART-1-1 - 
             THIS BOUNDARY CONDITION IS IGNORED

 ***WARNING: DEGREE OF FREEDOM 6 IS NOT ACTIVE ON NODE 2779 INSTANCE PART-1-1 - 
             THIS BOUNDARY CONDITION IS IGNORED

 ***WARNING: DEGREE OF FREEDOM 6 IS NOT ACTIVE ON NODE 2780 INSTANCE PART-1-1 - 
             THIS BOUNDARY CONDITION IS IGNORED

 ***WARNING: DEGREE OF FREEDOM 6 IS NOT ACTIVE ON NODE 2781 INSTANCE PART-1-1 - 
             THIS BOUNDARY CONDITION IS IGNORED

 ***WARNING: DEGREE OF FREEDOM 6 IS NOT ACTIVE ON NODE 2782 INSTANCE PART-1-1 - 
             THIS BOUNDARY CONDITION IS IGNORED

 ***WARNING: DEGREE OF FREEDOM 6 IS NOT ACTIVE ON NODE 2783 INSTANCE PART-1-1 - 
             THIS BOUNDARY CONDITION IS IGNORED

 ***WARNING: DEGREE OF FREEDOM 6 IS NOT ACTIVE ON NODE 2784 INSTANCE PART-1-1 - 
             THIS BOUNDARY CONDITION IS IGNORED

 ***WARNING: DEGREE OF FREEDOM 6 IS NOT ACTIVE ON NODE 2785 INSTANCE PART-1-1 - 
             THIS BOUNDARY CONDITION IS IGNORED

 ***WARNING: DEGREE OF FREEDOM 6 IS NOT ACTIVE ON NODE 2786 INSTANCE PART-1-1 - 
             THIS BOUNDARY CONDITION IS IGNORED

 ***WARNING: DEGREE OF FREEDOM 6 IS NOT ACTIVE ON NODE 2787 INSTANCE PART-1-1 - 
             THIS BOUNDARY CONDITION IS IGNORED

 ***WARNING: DEGREE OF FREEDOM 6 IS NOT ACTIVE ON NODE 2788 INSTANCE PART-1-1 - 
             THIS BOUNDARY CONDITION IS IGNORED

 ***WARNING: DEGREE OF FREEDOM 6 IS NOT ACTIVE ON NODE 2789 INSTANCE PART-1-1 - 
             THIS BOUNDARY CONDITION IS IGNORED

 ***WARNING: DEGREE OF FREEDOM 6 IS NOT ACTIVE ON NODE 2790 INSTANCE PART-1-1 - 
             THIS BOUNDARY CONDITION IS IGNORED

 ***WARNING: DEGREE OF FREEDOM 6 IS NOT ACTIVE ON NODE 2791 INSTANCE PART-1-1 - 
             THIS BOUNDARY CONDITION IS IGNORED

 ***WARNING: DEGREE OF FREEDOM 6 IS NOT ACTIVE ON NODE 2792 INSTANCE PART-1-1 - 
             THIS BOUNDARY CONDITION IS IGNORED

 ***WARNING: DEGREE OF FREEDOM 6 IS NOT ACTIVE ON NODE 2793 INSTANCE PART-1-1 - 
             THIS BOUNDARY CONDITION IS IGNORED

 ***WARNING: DEGREE OF FREEDOM 6 IS NOT ACTIVE ON NODE 2794 INSTANCE PART-1-1 - 
             THIS BOUNDARY CONDITION IS IGNORED

 ***WARNING: DEGREE OF FREEDOM 6 IS NOT ACTIVE ON NODE 2795 INSTANCE PART-1-1 - 
             THIS BOUNDARY CONDITION IS IGNORED

 ***WARNING: DEGREE OF FREEDOM 6 IS NOT ACTIVE ON NODE 2796 INSTANCE PART-1-1 - 
             THIS BOUNDARY CONDITION IS IGNORED

 ***WARNING: DEGREE OF FREEDOM 6 IS NOT ACTIVE ON NODE 2797 INSTANCE PART-1-1 - 
             THIS BOUNDARY CONDITION IS IGNORED

 ***WARNING: DEGREE OF FREEDOM 6 IS NOT ACTIVE ON NODE 2798 INSTANCE PART-1-1 - 
             THIS BOUNDARY CONDITION IS IGNORED

 ***WARNING: DEGREE OF FREEDOM 6 IS NOT ACTIVE ON NODE 2799 INSTANCE PART-1-1 - 
             THIS BOUNDARY CONDITION IS IGNORED

 ***WARNING: DEGREE OF FREEDOM 6 IS NOT ACTIVE ON NODE 2800 INSTANCE PART-1-1 - 
             THIS BOUNDARY CONDITION IS IGNORED

 ***WARNING: DEGREE OF FREEDOM 6 IS NOT ACTIVE ON NODE 2801 INSTANCE PART-1-1 - 
             THIS BOUNDARY CONDITION IS IGNORED

 ***WARNING: DEGREE OF FREEDOM 6 IS NOT ACTIVE ON NODE 2802 INSTANCE PART-1-1 - 
             THIS BOUNDARY CONDITION IS IGNORED

 ***WARNING: DEGREE OF FREEDOM 6 IS NOT ACTIVE ON NODE 2803 INSTANCE PART-1-1 - 
             THIS BOUNDARY CONDITION IS IGNORED

 ***WARNING: DEGREE OF FREEDOM 6 IS NOT ACTIVE ON NODE 2804 INSTANCE PART-1-1 - 
             THIS BOUNDARY CONDITION IS IGNORED

 ***WARNING: DEGREE OF FREEDOM 6 IS NOT ACTIVE ON NODE 2805 INSTANCE PART-1-1 - 
             THIS BOUNDARY CONDITION IS IGNORED

 ***WARNING: DEGREE OF FREEDOM 6 IS NOT ACTIVE ON NODE 2806 INSTANCE PART-1-1 - 
             THIS BOUNDARY CONDITION IS IGNORED

 ***WARNING: DEGREE OF FREEDOM 6 IS NOT ACTIVE ON NODE 2807 INSTANCE PART-1-1 - 
             THIS BOUNDARY CONDITION IS IGNORED

 ***WARNING: DEGREE OF FREEDOM 6 IS NOT ACTIVE ON NODE 2808 INSTANCE PART-1-1 - 
             THIS BOUNDARY CONDITION IS IGNORED

 ***WARNING: DEGREE OF FREEDOM 6 IS NOT ACTIVE ON NODE 2809 INSTANCE PART-1-1 - 
             THIS BOUNDARY CONDITION IS IGNORED

 ***WARNING: DEGREE OF FREEDOM 6 IS NOT ACTIVE ON NODE 2810 INSTANCE PART-1-1 - 
             THIS BOUNDARY CONDITION IS IGNORED

 ***WARNING: DEGREE OF FREEDOM 6 IS NOT ACTIVE ON NODE 2811 INSTANCE PART-1-1 - 
             THIS BOUNDARY CONDITION IS IGNORED

 ***WARNING: DEGREE OF FREEDOM 6 IS NOT ACTIVE ON NODE 2812 INSTANCE PART-1-1 - 
             THIS BOUNDARY CONDITION IS IGNORED

 ***WARNING: DEGREE OF FREEDOM 6 IS NOT ACTIVE ON NODE 2813 INSTANCE PART-1-1 - 
             THIS BOUNDARY CONDITION IS IGNORED

 ***WARNING: DEGREE OF FREEDOM 6 IS NOT ACTIVE ON NODE 2814 INSTANCE PART-1-1 - 
             THIS BOUNDARY CONDITION IS IGNORED

 ***WARNING: DEGREE OF FREEDOM 6 IS NOT ACTIVE ON NODE 2815 INSTANCE PART-1-1 - 
             THIS BOUNDARY CONDITION IS IGNORED

 ***WARNING: DEGREE OF FREEDOM 6 IS NOT ACTIVE ON NODE 2816 INSTANCE PART-1-1 - 
             THIS BOUNDARY CONDITION IS IGNORED

 ***WARNING: DEGREE OF FREEDOM 6 IS NOT ACTIVE ON NODE 2817 INSTANCE PART-1-1 - 
             THIS BOUNDARY CONDITION IS IGNORED

 ***WARNING: DEGREE OF FREEDOM 6 IS NOT ACTIVE ON NODE 2818 INSTANCE PART-1-1 - 
             THIS BOUNDARY CONDITION IS IGNORED

 ***WARNING: DEGREE OF FREEDOM 6 IS NOT ACTIVE ON NODE 2819 INSTANCE PART-1-1 - 
             THIS BOUNDARY CONDITION IS IGNORED

 ***WARNING: DEGREE OF FREEDOM 6 IS NOT ACTIVE ON NODE 2820 INSTANCE PART-1-1 - 
             THIS BOUNDARY CONDITION IS IGNORED

 ***WARNING: DEGREE OF FREEDOM 6 IS NOT ACTIVE ON NODE 2821 INSTANCE PART-1-1 - 
             THIS BOUNDARY CONDITION IS IGNORED

 ***WARNING: DEGREE OF FREEDOM 6 IS NOT ACTIVE ON NODE 2822 INSTANCE PART-1-1 - 
             THIS BOUNDARY CONDITION IS IGNORED

 ***WARNING: DEGREE OF FREEDOM 6 IS NOT ACTIVE ON NODE 2823 INSTANCE PART-1-1 - 
             THIS BOUNDARY CONDITION IS IGNORED

 ***WARNING: DEGREE OF FREEDOM 6 IS NOT ACTIVE ON NODE 2824 INSTANCE PART-1-1 - 
             THIS BOUNDARY CONDITION IS IGNORED

 ***WARNING: DEGREE OF FREEDOM 6 IS NOT ACTIVE ON NODE 2825 INSTANCE PART-1-1 - 
             THIS BOUNDARY CONDITION IS IGNORED

 ***WARNING: DEGREE OF FREEDOM 6 IS NOT ACTIVE ON NODE 2826 INSTANCE PART-1-1 - 
             THIS BOUNDARY CONDITION IS IGNORED

 ***WARNING: DEGREE OF FREEDOM 6 IS NOT ACTIVE ON NODE 2827 INSTANCE PART-1-1 - 
             THIS BOUNDARY CONDITION IS IGNORED

 ***WARNING: DEGREE OF FREEDOM 6 IS NOT ACTIVE ON NODE 2828 INSTANCE PART-1-1 - 
             THIS BOUNDARY CONDITION IS IGNORED

 ***WARNING: DEGREE OF FREEDOM 6 IS NOT ACTIVE ON NODE 2829 INSTANCE PART-1-1 - 
             THIS BOUNDARY CONDITION IS IGNORED

 ***WARNING: DEGREE OF FREEDOM 6 IS NOT ACTIVE ON NODE 2830 INSTANCE PART-1-1 - 
             THIS BOUNDARY CONDITION IS IGNORED

 ***WARNING: DEGREE OF FREEDOM 6 IS NOT ACTIVE ON NODE 2831 INSTANCE PART-1-1 - 
             THIS BOUNDARY CONDITION IS IGNORED

 ***WARNING: DEGREE OF FREEDOM 6 IS NOT ACTIVE ON NODE 2832 INSTANCE PART-1-1 - 
             THIS BOUNDARY CONDITION IS IGNORED

 ***WARNING: DEGREE OF FREEDOM 6 IS NOT ACTIVE ON NODE 2833 INSTANCE PART-1-1 - 
             THIS BOUNDARY CONDITION IS IGNORED

 ***WARNING: DEGREE OF FREEDOM 6 IS NOT ACTIVE ON NODE 2834 INSTANCE PART-1-1 - 
             THIS BOUNDARY CONDITION IS IGNORED

 ***WARNING: DEGREE OF FREEDOM 6 IS NOT ACTIVE ON NODE 2835 INSTANCE PART-1-1 - 
             THIS BOUNDARY CONDITION IS IGNORED

 ***WARNING: DEGREE OF FREEDOM 6 IS NOT ACTIVE ON NODE 2836 INSTANCE PART-1-1 - 
             THIS BOUNDARY CONDITION IS IGNORED

 ***WARNING: DEGREE OF FREEDOM 6 IS NOT ACTIVE ON NODE 2837 INSTANCE PART-1-1 - 
             THIS BOUNDARY CONDITION IS IGNORED

 ***WARNING: DEGREE OF FREEDOM 6 IS NOT ACTIVE ON NODE 2838 INSTANCE PART-1-1 - 
             THIS BOUNDARY CONDITION IS IGNORED

 ***WARNING: DEGREE OF FREEDOM 6 IS NOT ACTIVE ON NODE 2839 INSTANCE PART-1-1 - 
             THIS BOUNDARY CONDITION IS IGNORED

 ***WARNING: DEGREE OF FREEDOM 6 IS NOT ACTIVE ON NODE 2840 INSTANCE PART-1-1 - 
             THIS BOUNDARY CONDITION IS IGNORED

 ***WARNING: DEGREE OF FREEDOM 6 IS NOT ACTIVE ON NODE 2841 INSTANCE PART-1-1 - 
             THIS BOUNDARY CONDITION IS IGNORED

 ***WARNING: DEGREE OF FREEDOM 6 IS NOT ACTIVE ON NODE 2842 INSTANCE PART-1-1 - 
             THIS BOUNDARY CONDITION IS IGNORED

 ***WARNING: DEGREE OF FREEDOM 6 IS NOT ACTIVE ON NODE 2843 INSTANCE PART-1-1 - 
             THIS BOUNDARY CONDITION IS IGNORED

 ***WARNING: DEGREE OF FREEDOM 6 IS NOT ACTIVE ON NODE 2844 INSTANCE PART-1-1 - 
             THIS BOUNDARY CONDITION IS IGNORED

 ***WARNING: DEGREE OF FREEDOM 6 IS NOT ACTIVE ON NODE 2845 INSTANCE PART-1-1 - 
             THIS BOUNDARY CONDITION IS IGNORED

 ***WARNING: DEGREE OF FREEDOM 6 IS NOT ACTIVE ON NODE 2846 INSTANCE PART-1-1 - 
             THIS BOUNDARY CONDITION IS IGNORED

 ***WARNING: DEGREE OF FREEDOM 6 IS NOT ACTIVE ON NODE 2847 INSTANCE PART-1-1 - 
             THIS BOUNDARY CONDITION IS IGNORED

 ***WARNING: DEGREE OF FREEDOM 6 IS NOT ACTIVE ON NODE 2848 INSTANCE PART-1-1 - 
             THIS BOUNDARY CONDITION IS IGNORED

 ***WARNING: DEGREE OF FREEDOM 6 IS NOT ACTIVE ON NODE 2849 INSTANCE PART-1-1 - 
             THIS BOUNDARY CONDITION IS IGNORED

 ***WARNING: DEGREE OF FREEDOM 6 IS NOT ACTIVE ON NODE 2850 INSTANCE PART-1-1 - 
             THIS BOUNDARY CONDITION IS IGNORED

 ***WARNING: DEGREE OF FREEDOM 6 IS NOT ACTIVE ON NODE 2851 INSTANCE PART-1-1 - 
             THIS BOUNDARY CONDITION IS IGNORED

 ***WARNING: DEGREE OF FREEDOM 6 IS NOT ACTIVE ON NODE 2852 INSTANCE PART-1-1 - 
             THIS BOUNDARY CONDITION IS IGNORED

 ***WARNING: DEGREE OF FREEDOM 6 IS NOT ACTIVE ON NODE 2853 INSTANCE PART-1-1 - 
             THIS BOUNDARY CONDITION IS IGNORED

 ***WARNING: DEGREE OF FREEDOM 6 IS NOT ACTIVE ON NODE 2854 INSTANCE PART-1-1 - 
             THIS BOUNDARY CONDITION IS IGNORED

 ***WARNING: DEGREE OF FREEDOM 6 IS NOT ACTIVE ON NODE 2855 INSTANCE PART-1-1 - 
             THIS BOUNDARY CONDITION IS IGNORED

 ***WARNING: DEGREE OF FREEDOM 6 IS NOT ACTIVE ON NODE 2856 INSTANCE PART-1-1 - 
             THIS BOUNDARY CONDITION IS IGNORED

 ***WARNING: DEGREE OF FREEDOM 6 IS NOT ACTIVE ON NODE 2857 INSTANCE PART-1-1 - 
             THIS BOUNDARY CONDITION IS IGNORED

 ***WARNING: DEGREE OF FREEDOM 6 IS NOT ACTIVE ON NODE 2858 INSTANCE PART-1-1 - 
             THIS BOUNDARY CONDITION IS IGNORED

 ***WARNING: DEGREE OF FREEDOM 6 IS NOT ACTIVE ON NODE 2859 INSTANCE PART-1-1 - 
             THIS BOUNDARY CONDITION IS IGNORED

 ***WARNING: DEGREE OF FREEDOM 6 IS NOT ACTIVE ON NODE 2860 INSTANCE PART-1-1 - 
             THIS BOUNDARY CONDITION IS IGNORED

 ***WARNING: DEGREE OF FREEDOM 6 IS NOT ACTIVE ON NODE 2861 INSTANCE PART-1-1 - 
             THIS BOUNDARY CONDITION IS IGNORED

 ***WARNING: DEGREE OF FREEDOM 6 IS NOT ACTIVE ON NODE 2862 INSTANCE PART-1-1 - 
             THIS BOUNDARY CONDITION IS IGNORED

 ***WARNING: DEGREE OF FREEDOM 6 IS NOT ACTIVE ON NODE 2863 INSTANCE PART-1-1 - 
             THIS BOUNDARY CONDITION IS IGNORED

 ***WARNING: DEGREE OF FREEDOM 6 IS NOT ACTIVE ON NODE 2864 INSTANCE PART-1-1 - 
             THIS BOUNDARY CONDITION IS IGNORED

 ***WARNING: DEGREE OF FREEDOM 6 IS NOT ACTIVE ON NODE 2865 INSTANCE PART-1-1 - 
             THIS BOUNDARY CONDITION IS IGNORED

 ***WARNING: DEGREE OF FREEDOM 6 IS NOT ACTIVE ON NODE 2866 INSTANCE PART-1-1 - 
             THIS BOUNDARY CONDITION IS IGNORED

 ***WARNING: DEGREE OF FREEDOM 6 IS NOT ACTIVE ON NODE 2867 INSTANCE PART-1-1 - 
             THIS BOUNDARY CONDITION IS IGNORED

 ***WARNING: DEGREE OF FREEDOM 6 IS NOT ACTIVE ON NODE 2868 INSTANCE PART-1-1 - 
             THIS BOUNDARY CONDITION IS IGNORED

 ***WARNING: DEGREE OF FREEDOM 6 IS NOT ACTIVE ON NODE 2869 INSTANCE PART-1-1 - 
             THIS BOUNDARY CONDITION IS IGNORED

 ***WARNING: DEGREE OF FREEDOM 6 IS NOT ACTIVE ON NODE 2870 INSTANCE PART-1-1 - 
             THIS BOUNDARY CONDITION IS IGNORED

 ***WARNING: DEGREE OF FREEDOM 6 IS NOT ACTIVE ON NODE 2871 INSTANCE PART-1-1 - 
             THIS BOUNDARY CONDITION IS IGNORED

 ***WARNING: DEGREE OF FREEDOM 6 IS NOT ACTIVE ON NODE 2872 INSTANCE PART-1-1 - 
             THIS BOUNDARY CONDITION IS IGNORED

 ***WARNING: DEGREE OF FREEDOM 6 IS NOT ACTIVE ON NODE 2873 INSTANCE PART-1-1 - 
             THIS BOUNDARY CONDITION IS IGNORED

 ***WARNING: DEGREE OF FREEDOM 6 IS NOT ACTIVE ON NODE 2874 INSTANCE PART-1-1 - 
             THIS BOUNDARY CONDITION IS IGNORED

 ***WARNING: DEGREE OF FREEDOM 6 IS NOT ACTIVE ON NODE 2875 INSTANCE PART-1-1 - 
             THIS BOUNDARY CONDITION IS IGNORED

 ***WARNING: DEGREE OF FREEDOM 6 IS NOT ACTIVE ON NODE 2876 INSTANCE PART-1-1 - 
             THIS BOUNDARY CONDITION IS IGNORED

 ***WARNING: DEGREE OF FREEDOM 6 IS NOT ACTIVE ON NODE 2877 INSTANCE PART-1-1 - 
             THIS BOUNDARY CONDITION IS IGNORED

 ***WARNING: DEGREE OF FREEDOM 6 IS NOT ACTIVE ON NODE 2878 INSTANCE PART-1-1 - 
             THIS BOUNDARY CONDITION IS IGNORED

 ***WARNING: DEGREE OF FREEDOM 6 IS NOT ACTIVE ON NODE 2879 INSTANCE PART-1-1 - 
             THIS BOUNDARY CONDITION IS IGNORED

 ***WARNING: DEGREE OF FREEDOM 6 IS NOT ACTIVE ON NODE 2880 INSTANCE PART-1-1 - 
             THIS BOUNDARY CONDITION IS IGNORED

 ***WARNING: DEGREE OF FREEDOM 6 IS NOT ACTIVE ON NODE 2881 INSTANCE PART-1-1 - 
             THIS BOUNDARY CONDITION IS IGNORED

 ***WARNING: DEGREE OF FREEDOM 6 IS NOT ACTIVE ON NODE 2882 INSTANCE PART-1-1 - 
             THIS BOUNDARY CONDITION IS IGNORED

 ***WARNING: DEGREE OF FREEDOM 6 IS NOT ACTIVE ON NODE 2883 INSTANCE PART-1-1 - 
             THIS BOUNDARY CONDITION IS IGNORED

 ***WARNING: DEGREE OF FREEDOM 6 IS NOT ACTIVE ON NODE 2884 INSTANCE PART-1-1 - 
             THIS BOUNDARY CONDITION IS IGNORED

 ***WARNING: DEGREE OF FREEDOM 6 IS NOT ACTIVE ON NODE 2885 INSTANCE PART-1-1 - 
             THIS BOUNDARY CONDITION IS IGNORED

 ***WARNING: DEGREE OF FREEDOM 6 IS NOT ACTIVE ON NODE 2886 INSTANCE PART-1-1 - 
             THIS BOUNDARY CONDITION IS IGNORED

 ***WARNING: DEGREE OF FREEDOM 6 IS NOT ACTIVE ON NODE 2887 INSTANCE PART-1-1 - 
             THIS BOUNDARY CONDITION IS IGNORED

 ***WARNING: DEGREE OF FREEDOM 6 IS NOT ACTIVE ON NODE 2888 INSTANCE PART-1-1 - 
             THIS BOUNDARY CONDITION IS IGNORED

 ***WARNING: DEGREE OF FREEDOM 6 IS NOT ACTIVE ON NODE 2889 INSTANCE PART-1-1 - 
             THIS BOUNDARY CONDITION IS IGNORED

 ***WARNING: DEGREE OF FREEDOM 6 IS NOT ACTIVE ON NODE 2890 INSTANCE PART-1-1 - 
             THIS BOUNDARY CONDITION IS IGNORED

 ***WARNING: DEGREE OF FREEDOM 6 IS NOT ACTIVE ON NODE 2891 INSTANCE PART-1-1 - 
             THIS BOUNDARY CONDITION IS IGNORED

 ***WARNING: DEGREE OF FREEDOM 6 IS NOT ACTIVE ON NODE 2892 INSTANCE PART-1-1 - 
             THIS BOUNDARY CONDITION IS IGNORED

 ***WARNING: DEGREE OF FREEDOM 6 IS NOT ACTIVE ON NODE 2893 INSTANCE PART-1-1 - 
             THIS BOUNDARY CONDITION IS IGNORED

 ***WARNING: DEGREE OF FREEDOM 6 IS NOT ACTIVE ON NODE 2894 INSTANCE PART-1-1 - 
             THIS BOUNDARY CONDITION IS IGNORED

 ***WARNING: DEGREE OF FREEDOM 6 IS NOT ACTIVE ON NODE 2895 INSTANCE PART-1-1 - 
             THIS BOUNDARY CONDITION IS IGNORED

 ***WARNING: DEGREE OF FREEDOM 6 IS NOT ACTIVE ON NODE 2896 INSTANCE PART-1-1 - 
             THIS BOUNDARY CONDITION IS IGNORED

 ***WARNING: DEGREE OF FREEDOM 6 IS NOT ACTIVE ON NODE 2897 INSTANCE PART-1-1 - 
             THIS BOUNDARY CONDITION IS IGNORED

 ***WARNING: DEGREE OF FREEDOM 6 IS NOT ACTIVE ON NODE 2898 INSTANCE PART-1-1 - 
             THIS BOUNDARY CONDITION IS IGNORED

 ***WARNING: DEGREE OF FREEDOM 6 IS NOT ACTIVE ON NODE 2899 INSTANCE PART-1-1 - 
             THIS BOUNDARY CONDITION IS IGNORED

 ***WARNING: DEGREE OF FREEDOM 6 IS NOT ACTIVE ON NODE 2900 INSTANCE PART-1-1 - 
             THIS BOUNDARY CONDITION IS IGNORED

 ***WARNING: DEGREE OF FREEDOM 6 IS NOT ACTIVE ON NODE 2901 INSTANCE PART-1-1 - 
             THIS BOUNDARY CONDITION IS IGNORED

 ***WARNING: DEGREE OF FREEDOM 6 IS NOT ACTIVE ON NODE 2902 INSTANCE PART-1-1 - 
             THIS BOUNDARY CONDITION IS IGNORED

 ***WARNING: DEGREE OF FREEDOM 6 IS NOT ACTIVE ON NODE 2903 INSTANCE PART-1-1 - 
             THIS BOUNDARY CONDITION IS IGNORED

 ***WARNING: DEGREE OF FREEDOM 6 IS NOT ACTIVE ON NODE 2904 INSTANCE PART-1-1 - 
             THIS BOUNDARY CONDITION IS IGNORED

 ***WARNING: DEGREE OF FREEDOM 6 IS NOT ACTIVE ON NODE 2905 INSTANCE PART-1-1 - 
             THIS BOUNDARY CONDITION IS IGNORED

 ***WARNING: DEGREE OF FREEDOM 6 IS NOT ACTIVE ON NODE 2906 INSTANCE PART-1-1 - 
             THIS BOUNDARY CONDITION IS IGNORED

 ***WARNING: DEGREE OF FREEDOM 6 IS NOT ACTIVE ON NODE 2907 INSTANCE PART-1-1 - 
             THIS BOUNDARY CONDITION IS IGNORED

 ***WARNING: DEGREE OF FREEDOM 6 IS NOT ACTIVE ON NODE 2908 INSTANCE PART-1-1 - 
             THIS BOUNDARY CONDITION IS IGNORED

 ***WARNING: DEGREE OF FREEDOM 6 IS NOT ACTIVE ON NODE 2909 INSTANCE PART-1-1 - 
             THIS BOUNDARY CONDITION IS IGNORED

 ***WARNING: DEGREE OF FREEDOM 6 IS NOT ACTIVE ON NODE 2910 INSTANCE PART-1-1 - 
             THIS BOUNDARY CONDITION IS IGNORED

 ***WARNING: DEGREE OF FREEDOM 6 IS NOT ACTIVE ON NODE 2911 INSTANCE PART-1-1 - 
             THIS BOUNDARY CONDITION IS IGNORED

 ***WARNING: DEGREE OF FREEDOM 6 IS NOT ACTIVE ON NODE 2912 INSTANCE PART-1-1 - 
             THIS BOUNDARY CONDITION IS IGNORED

 ***WARNING: DEGREE OF FREEDOM 6 IS NOT ACTIVE ON NODE 2913 INSTANCE PART-1-1 - 
             THIS BOUNDARY CONDITION IS IGNORED

 ***WARNING: DEGREE OF FREEDOM 6 IS NOT ACTIVE ON NODE 2914 INSTANCE PART-1-1 - 
             THIS BOUNDARY CONDITION IS IGNORED

 ***WARNING: DEGREE OF FREEDOM 6 IS NOT ACTIVE ON NODE 2915 INSTANCE PART-1-1 - 
             THIS BOUNDARY CONDITION IS IGNORED

 ***WARNING: DEGREE OF FREEDOM 6 IS NOT ACTIVE ON NODE 2916 INSTANCE PART-1-1 - 
             THIS BOUNDARY CONDITION IS IGNORED

 ***WARNING: DEGREE OF FREEDOM 6 IS NOT ACTIVE ON NODE 2917 INSTANCE PART-1-1 - 
             THIS BOUNDARY CONDITION IS IGNORED

 ***WARNING: DEGREE OF FREEDOM 6 IS NOT ACTIVE ON NODE 2918 INSTANCE PART-1-1 - 
             THIS BOUNDARY CONDITION IS IGNORED

 ***WARNING: DEGREE OF FREEDOM 6 IS NOT ACTIVE ON NODE 2919 INSTANCE PART-1-1 - 
             THIS BOUNDARY CONDITION IS IGNORED

 ***WARNING: DEGREE OF FREEDOM 6 IS NOT ACTIVE ON NODE 2920 INSTANCE PART-1-1 - 
             THIS BOUNDARY CONDITION IS IGNORED

 ***WARNING: DEGREE OF FREEDOM 6 IS NOT ACTIVE ON NODE 2921 INSTANCE PART-1-1 - 
             THIS BOUNDARY CONDITION IS IGNORED

 ***WARNING: DEGREE OF FREEDOM 6 IS NOT ACTIVE ON NODE 2922 INSTANCE PART-1-1 - 
             THIS BOUNDARY CONDITION IS IGNORED

 ***WARNING: DEGREE OF FREEDOM 6 IS NOT ACTIVE ON NODE 2923 INSTANCE PART-1-1 - 
             THIS BOUNDARY CONDITION IS IGNORED

 ***WARNING: DEGREE OF FREEDOM 6 IS NOT ACTIVE ON NODE 2924 INSTANCE PART-1-1 - 
             THIS BOUNDARY CONDITION IS IGNORED

 ***WARNING: DEGREE OF FREEDOM 6 IS NOT ACTIVE ON NODE 2925 INSTANCE PART-1-1 - 
             THIS BOUNDARY CONDITION IS IGNORED

 ***WARNING: DEGREE OF FREEDOM 6 IS NOT ACTIVE ON NODE 2926 INSTANCE PART-1-1 - 
             THIS BOUNDARY CONDITION IS IGNORED

 ***WARNING: DEGREE OF FREEDOM 6 IS NOT ACTIVE ON NODE 2927 INSTANCE PART-1-1 - 
             THIS BOUNDARY CONDITION IS IGNORED

 ***WARNING: DEGREE OF FREEDOM 6 IS NOT ACTIVE ON NODE 2928 INSTANCE PART-1-1 - 
             THIS BOUNDARY CONDITION IS IGNORED

 ***WARNING: DEGREE OF FREEDOM 6 IS NOT ACTIVE ON NODE 2929 INSTANCE PART-1-1 - 
             THIS BOUNDARY CONDITION IS IGNORED

 ***WARNING: DEGREE OF FREEDOM 6 IS NOT ACTIVE ON NODE 2930 INSTANCE PART-1-1 - 
             THIS BOUNDARY CONDITION IS IGNORED

 ***WARNING: DEGREE OF FREEDOM 6 IS NOT ACTIVE ON NODE 2931 INSTANCE PART-1-1 - 
             THIS BOUNDARY CONDITION IS IGNORED

 ***WARNING: DEGREE OF FREEDOM 6 IS NOT ACTIVE ON NODE 2932 INSTANCE PART-1-1 - 
             THIS BOUNDARY CONDITION IS IGNORED

 ***WARNING: DEGREE OF FREEDOM 6 IS NOT ACTIVE ON NODE 2933 INSTANCE PART-1-1 - 
             THIS BOUNDARY CONDITION IS IGNORED

 ***WARNING: DEGREE OF FREEDOM 6 IS NOT ACTIVE ON NODE 2934 INSTANCE PART-1-1 - 
             THIS BOUNDARY CONDITION IS IGNORED

 ***WARNING: DEGREE OF FREEDOM 6 IS NOT ACTIVE ON NODE 2935 INSTANCE PART-1-1 - 
             THIS BOUNDARY CONDITION IS IGNORED

 ***WARNING: DEGREE OF FREEDOM 6 IS NOT ACTIVE ON NODE 2936 INSTANCE PART-1-1 - 
             THIS BOUNDARY CONDITION IS IGNORED

 ***WARNING: DEGREE OF FREEDOM 6 IS NOT ACTIVE ON NODE 2937 INSTANCE PART-1-1 - 
             THIS BOUNDARY CONDITION IS IGNORED

 ***WARNING: DEGREE OF FREEDOM 6 IS NOT ACTIVE ON NODE 2938 INSTANCE PART-1-1 - 
             THIS BOUNDARY CONDITION IS IGNORED

 ***WARNING: DEGREE OF FREEDOM 6 IS NOT ACTIVE ON NODE 2939 INSTANCE PART-1-1 - 
             THIS BOUNDARY CONDITION IS IGNORED

 ***WARNING: DEGREE OF FREEDOM 6 IS NOT ACTIVE ON NODE 2940 INSTANCE PART-1-1 - 
             THIS BOUNDARY CONDITION IS IGNORED

 ***WARNING: DEGREE OF FREEDOM 6 IS NOT ACTIVE ON NODE 2941 INSTANCE PART-1-1 - 
             THIS BOUNDARY CONDITION IS IGNORED

 ***WARNING: DEGREE OF FREEDOM 6 IS NOT ACTIVE ON NODE 2942 INSTANCE PART-1-1 - 
             THIS BOUNDARY CONDITION IS IGNORED

 ***WARNING: DEGREE OF FREEDOM 6 IS NOT ACTIVE ON NODE 2943 INSTANCE PART-1-1 - 
             THIS BOUNDARY CONDITION IS IGNORED

 ***WARNING: DEGREE OF FREEDOM 6 IS NOT ACTIVE ON NODE 2944 INSTANCE PART-1-1 - 
             THIS BOUNDARY CONDITION IS IGNORED

 ***WARNING: DEGREE OF FREEDOM 6 IS NOT ACTIVE ON NODE 2945 INSTANCE PART-1-1 - 
             THIS BOUNDARY CONDITION IS IGNORED

 ***WARNING: DEGREE OF FREEDOM 6 IS NOT ACTIVE ON NODE 2946 INSTANCE PART-1-1 - 
             THIS BOUNDARY CONDITION IS IGNORED

 ***WARNING: DEGREE OF FREEDOM 6 IS NOT ACTIVE ON NODE 2947 INSTANCE PART-1-1 - 
             THIS BOUNDARY CONDITION IS IGNORED

 ***WARNING: DEGREE OF FREEDOM 6 IS NOT ACTIVE ON NODE 2948 INSTANCE PART-1-1 - 
             THIS BOUNDARY CONDITION IS IGNORED

 ***WARNING: DEGREE OF FREEDOM 6 IS NOT ACTIVE ON NODE 2949 INSTANCE PART-1-1 - 
             THIS BOUNDARY CONDITION IS IGNORED

 ***WARNING: DEGREE OF FREEDOM 6 IS NOT ACTIVE ON NODE 2950 INSTANCE PART-1-1 - 
             THIS BOUNDARY CONDITION IS IGNORED

 ***WARNING: DEGREE OF FREEDOM 6 IS NOT ACTIVE ON NODE 2951 INSTANCE PART-1-1 - 
             THIS BOUNDARY CONDITION IS IGNORED

 ***WARNING: DEGREE OF FREEDOM 6 IS NOT ACTIVE ON NODE 2952 INSTANCE PART-1-1 - 
             THIS BOUNDARY CONDITION IS IGNORED

 ***WARNING: DEGREE OF FREEDOM 6 IS NOT ACTIVE ON NODE 2953 INSTANCE PART-1-1 - 
             THIS BOUNDARY CONDITION IS IGNORED

 ***WARNING: DEGREE OF FREEDOM 6 IS NOT ACTIVE ON NODE 2954 INSTANCE PART-1-1 - 
             THIS BOUNDARY CONDITION IS IGNORED

 ***WARNING: DEGREE OF FREEDOM 6 IS NOT ACTIVE ON NODE 2955 INSTANCE PART-1-1 - 
             THIS BOUNDARY CONDITION IS IGNORED

 ***WARNING: DEGREE OF FREEDOM 6 IS NOT ACTIVE ON NODE 2956 INSTANCE PART-1-1 - 
             THIS BOUNDARY CONDITION IS IGNORED

 ***WARNING: DEGREE OF FREEDOM 6 IS NOT ACTIVE ON NODE 2957 INSTANCE PART-1-1 - 
             THIS BOUNDARY CONDITION IS IGNORED

 ***WARNING: DEGREE OF FREEDOM 6 IS NOT ACTIVE ON NODE 2958 INSTANCE PART-1-1 - 
             THIS BOUNDARY CONDITION IS IGNORED

 ***WARNING: DEGREE OF FREEDOM 6 IS NOT ACTIVE ON NODE 2959 INSTANCE PART-1-1 - 
             THIS BOUNDARY CONDITION IS IGNORED

 ***WARNING: DEGREE OF FREEDOM 6 IS NOT ACTIVE ON NODE 2960 INSTANCE PART-1-1 - 
             THIS BOUNDARY CONDITION IS IGNORED

 ***WARNING: DEGREE OF FREEDOM 6 IS NOT ACTIVE ON NODE 2961 INSTANCE PART-1-1 - 
             THIS BOUNDARY CONDITION IS IGNORED

 ***WARNING: DEGREE OF FREEDOM 6 IS NOT ACTIVE ON NODE 2962 INSTANCE PART-1-1 - 
             THIS BOUNDARY CONDITION IS IGNORED

 ***WARNING: DEGREE OF FREEDOM 6 IS NOT ACTIVE ON NODE 2963 INSTANCE PART-1-1 - 
             THIS BOUNDARY CONDITION IS IGNORED

 ***WARNING: DEGREE OF FREEDOM 6 IS NOT ACTIVE ON NODE 2964 INSTANCE PART-1-1 - 
             THIS BOUNDARY CONDITION IS IGNORED

 ***WARNING: DEGREE OF FREEDOM 6 IS NOT ACTIVE ON NODE 2965 INSTANCE PART-1-1 - 
             THIS BOUNDARY CONDITION IS IGNORED

 ***WARNING: DEGREE OF FREEDOM 6 IS NOT ACTIVE ON NODE 2966 INSTANCE PART-1-1 - 
             THIS BOUNDARY CONDITION IS IGNORED

 ***WARNING: DEGREE OF FREEDOM 6 IS NOT ACTIVE ON NODE 2967 INSTANCE PART-1-1 - 
             THIS BOUNDARY CONDITION IS IGNORED

 ***WARNING: DEGREE OF FREEDOM 6 IS NOT ACTIVE ON NODE 2968 INSTANCE PART-1-1 - 
             THIS BOUNDARY CONDITION IS IGNORED

 ***WARNING: DEGREE OF FREEDOM 6 IS NOT ACTIVE ON NODE 2969 INSTANCE PART-1-1 - 
             THIS BOUNDARY CONDITION IS IGNORED

 ***WARNING: DEGREE OF FREEDOM 6 IS NOT ACTIVE ON NODE 2970 INSTANCE PART-1-1 - 
             THIS BOUNDARY CONDITION IS IGNORED

 ***WARNING: DEGREE OF FREEDOM 6 IS NOT ACTIVE ON NODE 2971 INSTANCE PART-1-1 - 
             THIS BOUNDARY CONDITION IS IGNORED

 ***WARNING: DEGREE OF FREEDOM 6 IS NOT ACTIVE ON NODE 2972 INSTANCE PART-1-1 - 
             THIS BOUNDARY CONDITION IS IGNORED

 ***WARNING: DEGREE OF FREEDOM 6 IS NOT ACTIVE ON NODE 2973 INSTANCE PART-1-1 - 
             THIS BOUNDARY CONDITION IS IGNORED

 ***WARNING: DEGREE OF FREEDOM 6 IS NOT ACTIVE ON NODE 2974 INSTANCE PART-1-1 - 
             THIS BOUNDARY CONDITION IS IGNORED

 ***WARNING: DEGREE OF FREEDOM 6 IS NOT ACTIVE ON NODE 2975 INSTANCE PART-1-1 - 
             THIS BOUNDARY CONDITION IS IGNORED

 ***WARNING: DEGREE OF FREEDOM 6 IS NOT ACTIVE ON NODE 2976 INSTANCE PART-1-1 - 
             THIS BOUNDARY CONDITION IS IGNORED

 ***WARNING: DEGREE OF FREEDOM 6 IS NOT ACTIVE ON NODE 2977 INSTANCE PART-1-1 - 
             THIS BOUNDARY CONDITION IS IGNORED

 ***WARNING: DEGREE OF FREEDOM 6 IS NOT ACTIVE ON NODE 2978 INSTANCE PART-1-1 - 
             THIS BOUNDARY CONDITION IS IGNORED

 ***WARNING: DEGREE OF FREEDOM 6 IS NOT ACTIVE ON NODE 2979 INSTANCE PART-1-1 - 
[...]
             - THIS BOUNDARY CONDITION IS IGNORED

 ***WARNING: DEGREE OF FREEDOM 6 IS NOT ACTIVE ON NODE 10112 INSTANCE PART-1-1 
             - THIS BOUNDARY CONDITION IS IGNORED

 ***WARNING: DEGREE OF FREEDOM 6 IS NOT ACTIVE ON NODE 10113 INSTANCE PART-1-1 
             - THIS BOUNDARY CONDITION IS IGNORED

 ***WARNING: DEGREE OF FREEDOM 6 IS NOT ACTIVE ON NODE 10114 INSTANCE PART-1-1 
             - THIS BOUNDARY CONDITION IS IGNORED

 ***WARNING: DEGREE OF FREEDOM 6 IS NOT ACTIVE ON NODE 10115 INSTANCE PART-1-1 
             - THIS BOUNDARY CONDITION IS IGNORED

 ***WARNING: DEGREE OF FREEDOM 6 IS NOT ACTIVE ON NODE 10116 INSTANCE PART-1-1 
             - THIS BOUNDARY CONDITION IS IGNORED

 ***WARNING: DEGREE OF FREEDOM 6 IS NOT ACTIVE ON NODE 10117 INSTANCE PART-1-1 
             - THIS BOUNDARY CONDITION IS IGNORED

 ***WARNING: DEGREE OF FREEDOM 6 IS NOT ACTIVE ON NODE 10118 INSTANCE PART-1-1 
             - THIS BOUNDARY CONDITION IS IGNORED

 ***WARNING: DEGREE OF FREEDOM 6 IS NOT ACTIVE ON NODE 10119 INSTANCE PART-1-1 
             - THIS BOUNDARY CONDITION IS IGNORED

 ***WARNING: DEGREE OF FREEDOM 6 IS NOT ACTIVE ON NODE 10120 INSTANCE PART-1-1 
             - THIS BOUNDARY CONDITION IS IGNORED

 ***WARNING: DEGREE OF FREEDOM 6 IS NOT ACTIVE ON NODE 10121 INSTANCE PART-1-1 
             - THIS BOUNDARY CONDITION IS IGNORED

 ***WARNING: DEGREE OF FREEDOM 6 IS NOT ACTIVE ON NODE 10122 INSTANCE PART-1-1 
             - THIS BOUNDARY CONDITION IS IGNORED

 ***WARNING: DEGREE OF FREEDOM 6 IS NOT ACTIVE ON NODE 10123 INSTANCE PART-1-1 
             - THIS BOUNDARY CONDITION IS IGNORED

 ***WARNING: DEGREE OF FREEDOM 6 IS NOT ACTIVE ON NODE 10124 INSTANCE PART-1-1 
             - THIS BOUNDARY CONDITION IS IGNORED

 ***WARNING: DEGREE OF FREEDOM 6 IS NOT ACTIVE ON NODE 10125 INSTANCE PART-1-1 
             - THIS BOUNDARY CONDITION IS IGNORED

 ***WARNING: DEGREE OF FREEDOM 6 IS NOT ACTIVE ON NODE 10126 INSTANCE PART-1-1 
             - THIS BOUNDARY CONDITION IS IGNORED

 ***WARNING: DEGREE OF FREEDOM 6 IS NOT ACTIVE ON NODE 10127 INSTANCE PART-1-1 
             - THIS BOUNDARY CONDITION IS IGNORED

 ***WARNING: DEGREE OF FREEDOM 6 IS NOT ACTIVE ON NODE 10128 INSTANCE PART-1-1 
             - THIS BOUNDARY CONDITION IS IGNORED

 ***WARNING: DEGREE OF FREEDOM 6 IS NOT ACTIVE ON NODE 10129 INSTANCE PART-1-1 
             - THIS BOUNDARY CONDITION IS IGNORED

 ***WARNING: DEGREE OF FREEDOM 6 IS NOT ACTIVE ON NODE 10130 INSTANCE PART-1-1 
             - THIS BOUNDARY CONDITION IS IGNORED

 ***WARNING: DEGREE OF FREEDOM 6 IS NOT ACTIVE ON NODE 10131 INSTANCE PART-1-1 
             - THIS BOUNDARY CONDITION IS IGNORED

 ***WARNING: DEGREE OF FREEDOM 6 IS NOT ACTIVE ON NODE 10132 INSTANCE PART-1-1 
             - THIS BOUNDARY CONDITION IS IGNORED

 ***WARNING: DEGREE OF FREEDOM 6 IS NOT ACTIVE ON NODE 10133 INSTANCE PART-1-1 
             - THIS BOUNDARY CONDITION IS IGNORED

 ***WARNING: DEGREE OF FREEDOM 6 IS NOT ACTIVE ON NODE 10134 INSTANCE PART-1-1 
             - THIS BOUNDARY CONDITION IS IGNORED

 ***WARNING: DEGREE OF FREEDOM 6 IS NOT ACTIVE ON NODE 10135 INSTANCE PART-1-1 
             - THIS BOUNDARY CONDITION IS IGNORED

 ***WARNING: DEGREE OF FREEDOM 6 IS NOT ACTIVE ON NODE 10136 INSTANCE PART-1-1 
             - THIS BOUNDARY CONDITION IS IGNORED

 ***WARNING: DEGREE OF FREEDOM 6 IS NOT ACTIVE ON NODE 10137 INSTANCE PART-1-1 
             - THIS BOUNDARY CONDITION IS IGNORED

 ***WARNING: DEGREE OF FREEDOM 6 IS NOT ACTIVE ON NODE 10138 INSTANCE PART-1-1 
             - THIS BOUNDARY CONDITION IS IGNORED

 ***WARNING: DEGREE OF FREEDOM 6 IS NOT ACTIVE ON NODE 10139 INSTANCE PART-1-1 
             - THIS BOUNDARY CONDITION IS IGNORED

 ***WARNING: DEGREE OF FREEDOM 6 IS NOT ACTIVE ON NODE 10140 INSTANCE PART-1-1 
             - THIS BOUNDARY CONDITION IS IGNORED

 ***WARNING: DEGREE OF FREEDOM 6 IS NOT ACTIVE ON NODE 10141 INSTANCE PART-1-1 
             - THIS BOUNDARY CONDITION IS IGNORED

 ***WARNING: DEGREE OF FREEDOM 6 IS NOT ACTIVE ON NODE 10142 INSTANCE PART-1-1 
             - THIS BOUNDARY CONDITION IS IGNORED

 ***WARNING: DEGREE OF FREEDOM 6 IS NOT ACTIVE ON NODE 10143 INSTANCE PART-1-1 
             - THIS BOUNDARY CONDITION IS IGNORED

 ***WARNING: DEGREE OF FREEDOM 6 IS NOT ACTIVE ON NODE 10144 INSTANCE PART-1-1 
             - THIS BOUNDARY CONDITION IS IGNORED

 ***WARNING: DEGREE OF FREEDOM 6 IS NOT ACTIVE ON NODE 10145 INSTANCE PART-1-1 
             - THIS BOUNDARY CONDITION IS IGNORED

 ***WARNING: DEGREE OF FREEDOM 6 IS NOT ACTIVE ON NODE 10146 INSTANCE PART-1-1 
             - THIS BOUNDARY CONDITION IS IGNORED

 ***WARNING: DEGREE OF FREEDOM 6 IS NOT ACTIVE ON NODE 10147 INSTANCE PART-1-1 
             - THIS BOUNDARY CONDITION IS IGNORED

 ***WARNING: DEGREE OF FREEDOM 6 IS NOT ACTIVE ON NODE 10148 INSTANCE PART-1-1 
             - THIS BOUNDARY CONDITION IS IGNORED

 ***WARNING: DEGREE OF FREEDOM 6 IS NOT ACTIVE ON NODE 10149 INSTANCE PART-1-1 
             - THIS BOUNDARY CONDITION IS IGNORED

 ***WARNING: DEGREE OF FREEDOM 6 IS NOT ACTIVE ON NODE 10150 INSTANCE PART-1-1 
             - THIS BOUNDARY CONDITION IS IGNORED

 ***WARNING: DEGREE OF FREEDOM 6 IS NOT ACTIVE ON NODE 10151 INSTANCE PART-1-1 
             - THIS BOUNDARY CONDITION IS IGNORED

 ***WARNING: DEGREE OF FREEDOM 6 IS NOT ACTIVE ON NODE 10152 INSTANCE PART-1-1 
             - THIS BOUNDARY CONDITION IS IGNORED

 ***WARNING: DEGREE OF FREEDOM 6 IS NOT ACTIVE ON NODE 10153 INSTANCE PART-1-1 
             - THIS BOUNDARY CONDITION IS IGNORED

 ***WARNING: DEGREE OF FREEDOM 6 IS NOT ACTIVE ON NODE 10154 INSTANCE PART-1-1 
             - THIS BOUNDARY CONDITION IS IGNORED

 ***WARNING: DEGREE OF FREEDOM 6 IS NOT ACTIVE ON NODE 10155 INSTANCE PART-1-1 
             - THIS BOUNDARY CONDITION IS IGNORED

 ***WARNING: DEGREE OF FREEDOM 6 IS NOT ACTIVE ON NODE 10156 INSTANCE PART-1-1 
             - THIS BOUNDARY CONDITION IS IGNORED

 ***WARNING: DEGREE OF FREEDOM 6 IS NOT ACTIVE ON NODE 10157 INSTANCE PART-1-1 
             - THIS BOUNDARY CONDITION IS IGNORED

 ***WARNING: DEGREE OF FREEDOM 6 IS NOT ACTIVE ON NODE 10158 INSTANCE PART-1-1 
             - THIS BOUNDARY CONDITION IS IGNORED

 ***WARNING: DEGREE OF FREEDOM 6 IS NOT ACTIVE ON NODE 10159 INSTANCE PART-1-1 
             - THIS BOUNDARY CONDITION IS IGNORED

 ***WARNING: DEGREE OF FREEDOM 6 IS NOT ACTIVE ON NODE 10160 INSTANCE PART-1-1 
             - THIS BOUNDARY CONDITION IS IGNORED

 ***WARNING: DEGREE OF FREEDOM 6 IS NOT ACTIVE ON NODE 10161 INSTANCE PART-1-1 
             - THIS BOUNDARY CONDITION IS IGNORED

 ***WARNING: DEGREE OF FREEDOM 6 IS NOT ACTIVE ON NODE 10162 INSTANCE PART-1-1 
             - THIS BOUNDARY CONDITION IS IGNORED

 ***WARNING: DEGREE OF FREEDOM 6 IS NOT ACTIVE ON NODE 10163 INSTANCE PART-1-1 
             - THIS BOUNDARY CONDITION IS IGNORED

 ***WARNING: DEGREE OF FREEDOM 6 IS NOT ACTIVE ON NODE 10164 INSTANCE PART-1-1 
             - THIS BOUNDARY CONDITION IS IGNORED

 ***WARNING: DEGREE OF FREEDOM 6 IS NOT ACTIVE ON NODE 10165 INSTANCE PART-1-1 
             - THIS BOUNDARY CONDITION IS IGNORED

 ***WARNING: DEGREE OF FREEDOM 6 IS NOT ACTIVE ON NODE 10166 INSTANCE PART-1-1 
             - THIS BOUNDARY CONDITION IS IGNORED

 ***WARNING: DEGREE OF FREEDOM 6 IS NOT ACTIVE ON NODE 10167 INSTANCE PART-1-1 
             - THIS BOUNDARY CONDITION IS IGNORED

 ***WARNING: DEGREE OF FREEDOM 6 IS NOT ACTIVE ON NODE 10168 INSTANCE PART-1-1 
             - THIS BOUNDARY CONDITION IS IGNORED

 ***WARNING: DEGREE OF FREEDOM 6 IS NOT ACTIVE ON NODE 10169 INSTANCE PART-1-1 
             - THIS BOUNDARY CONDITION IS IGNORED

 ***WARNING: DEGREE OF FREEDOM 6 IS NOT ACTIVE ON NODE 10170 INSTANCE PART-1-1 
             - THIS BOUNDARY CONDITION IS IGNORED

 ***WARNING: DEGREE OF FREEDOM 6 IS NOT ACTIVE ON NODE 10171 INSTANCE PART-1-1 
             - THIS BOUNDARY CONDITION IS IGNORED

 ***WARNING: DEGREE OF FREEDOM 6 IS NOT ACTIVE ON NODE 10172 INSTANCE PART-1-1 
             - THIS BOUNDARY CONDITION IS IGNORED

 ***WARNING: DEGREE OF FREEDOM 6 IS NOT ACTIVE ON NODE 10173 INSTANCE PART-1-1 
             - THIS BOUNDARY CONDITION IS IGNORED

 ***WARNING: DEGREE OF FREEDOM 6 IS NOT ACTIVE ON NODE 10174 INSTANCE PART-1-1 
             - THIS BOUNDARY CONDITION IS IGNORED

 ***WARNING: DEGREE OF FREEDOM 6 IS NOT ACTIVE ON NODE 10175 INSTANCE PART-1-1 
             - THIS BOUNDARY CONDITION IS IGNORED

 ***WARNING: DEGREE OF FREEDOM 6 IS NOT ACTIVE ON NODE 10176 INSTANCE PART-1-1 
             - THIS BOUNDARY CONDITION IS IGNORED

 ***WARNING: DEGREE OF FREEDOM 6 IS NOT ACTIVE ON NODE 10177 INSTANCE PART-1-1 
             - THIS BOUNDARY CONDITION IS IGNORED

 ***WARNING: DEGREE OF FREEDOM 6 IS NOT ACTIVE ON NODE 10178 INSTANCE PART-1-1 
             - THIS BOUNDARY CONDITION IS IGNORED

 ***WARNING: DEGREE OF FREEDOM 6 IS NOT ACTIVE ON NODE 10179 INSTANCE PART-1-1 
             - THIS BOUNDARY CONDITION IS IGNORED

 ***WARNING: DEGREE OF FREEDOM 6 IS NOT ACTIVE ON NODE 10180 INSTANCE PART-1-1 
             - THIS BOUNDARY CONDITION IS IGNORED

 ***WARNING: DEGREE OF FREEDOM 6 IS NOT ACTIVE ON NODE 10181 INSTANCE PART-1-1 
             - THIS BOUNDARY CONDITION IS IGNORED

 ***WARNING: DEGREE OF FREEDOM 6 IS NOT ACTIVE ON NODE 10182 INSTANCE PART-1-1 
             - THIS BOUNDARY CONDITION IS IGNORED

 ***WARNING: DEGREE OF FREEDOM 6 IS NOT ACTIVE ON NODE 10183 INSTANCE PART-1-1 
             - THIS BOUNDARY CONDITION IS IGNORED

 ***WARNING: DEGREE OF FREEDOM 6 IS NOT ACTIVE ON NODE 10184 INSTANCE PART-1-1 
             - THIS BOUNDARY CONDITION IS IGNORED

 ***WARNING: DEGREE OF FREEDOM 6 IS NOT ACTIVE ON NODE 10185 INSTANCE PART-1-1 
             - THIS BOUNDARY CONDITION IS IGNORED

 ***WARNING: DEGREE OF FREEDOM 6 IS NOT ACTIVE ON NODE 10186 INSTANCE PART-1-1 
             - THIS BOUNDARY CONDITION IS IGNORED

 ***WARNING: DEGREE OF FREEDOM 6 IS NOT ACTIVE ON NODE 10187 INSTANCE PART-1-1 
             - THIS BOUNDARY CONDITION IS IGNORED

 ***WARNING: DEGREE OF FREEDOM 6 IS NOT ACTIVE ON NODE 10188 INSTANCE PART-1-1 
             - THIS BOUNDARY CONDITION IS IGNORED

 ***WARNING: DEGREE OF FREEDOM 6 IS NOT ACTIVE ON NODE 10189 INSTANCE PART-1-1 
             - THIS BOUNDARY CONDITION IS IGNORED

 ***WARNING: DEGREE OF FREEDOM 6 IS NOT ACTIVE ON NODE 10190 INSTANCE PART-1-1 
             - THIS BOUNDARY CONDITION IS IGNORED

 ***WARNING: DEGREE OF FREEDOM 6 IS NOT ACTIVE ON NODE 10191 INSTANCE PART-1-1 
             - THIS BOUNDARY CONDITION IS IGNORED

 ***WARNING: DEGREE OF FREEDOM 6 IS NOT ACTIVE ON NODE 10192 INSTANCE PART-1-1 
             - THIS BOUNDARY CONDITION IS IGNORED

 ***WARNING: DEGREE OF FREEDOM 6 IS NOT ACTIVE ON NODE 10193 INSTANCE PART-1-1 
             - THIS BOUNDARY CONDITION IS IGNORED

 ***WARNING: DEGREE OF FREEDOM 6 IS NOT ACTIVE ON NODE 10194 INSTANCE PART-1-1 
             - THIS BOUNDARY CONDITION IS IGNORED

 ***WARNING: DEGREE OF FREEDOM 6 IS NOT ACTIVE ON NODE 10195 INSTANCE PART-1-1 
             - THIS BOUNDARY CONDITION IS IGNORED

 ***WARNING: DEGREE OF FREEDOM 6 IS NOT ACTIVE ON NODE 10196 INSTANCE PART-1-1 
             - THIS BOUNDARY CONDITION IS IGNORED

 ***WARNING: DEGREE OF FREEDOM 6 IS NOT ACTIVE ON NODE 10197 INSTANCE PART-1-1 
             - THIS BOUNDARY CONDITION IS IGNORED

 ***WARNING: DEGREE OF FREEDOM 6 IS NOT ACTIVE ON NODE 10198 INSTANCE PART-1-1 
             - THIS BOUNDARY CONDITION IS IGNORED

 ***WARNING: DEGREE OF FREEDOM 6 IS NOT ACTIVE ON NODE 10199 INSTANCE PART-1-1 
             - THIS BOUNDARY CONDITION IS IGNORED

 ***WARNING: DEGREE OF FREEDOM 6 IS NOT ACTIVE ON NODE 10200 INSTANCE PART-1-1 
             - THIS BOUNDARY CONDITION IS IGNORED

 ***WARNING: DEGREE OF FREEDOM 6 IS NOT ACTIVE ON NODE 10201 INSTANCE PART-1-1 
             - THIS BOUNDARY CONDITION IS IGNORED

 ***WARNING: DEGREE OF FREEDOM 6 IS NOT ACTIVE ON NODE 10202 INSTANCE PART-1-1 
             - THIS BOUNDARY CONDITION IS IGNORED

 ***WARNING: DEGREE OF FREEDOM 6 IS NOT ACTIVE ON NODE 10203 INSTANCE PART-1-1 
             - THIS BOUNDARY CONDITION IS IGNORED

 ***WARNING: DEGREE OF FREEDOM 6 IS NOT ACTIVE ON NODE 10204 INSTANCE PART-1-1 
             - THIS BOUNDARY CONDITION IS IGNORED

 ***WARNING: DEGREE OF FREEDOM 6 IS NOT ACTIVE ON NODE 10205 INSTANCE PART-1-1 
             - THIS BOUNDARY CONDITION IS IGNORED

 ***WARNING: DEGREE OF FREEDOM 6 IS NOT ACTIVE ON NODE 10206 INSTANCE PART-1-1 
             - THIS BOUNDARY CONDITION IS IGNORED

 ***WARNING: DEGREE OF FREEDOM 6 IS NOT ACTIVE ON NODE 10207 INSTANCE PART-1-1 
             - THIS BOUNDARY CONDITION IS IGNORED

 ***WARNING: DEGREE OF FREEDOM 6 IS NOT ACTIVE ON NODE 10208 INSTANCE PART-1-1 
             - THIS BOUNDARY CONDITION IS IGNORED

 ***WARNING: DEGREE OF FREEDOM 6 IS NOT ACTIVE ON NODE 10209 INSTANCE PART-1-1 
             - THIS BOUNDARY CONDITION IS IGNORED

 ***WARNING: DEGREE OF FREEDOM 6 IS NOT ACTIVE ON NODE 10210 INSTANCE PART-1-1 
             - THIS BOUNDARY CONDITION IS IGNORED

 ***WARNING: DEGREE OF FREEDOM 6 IS NOT ACTIVE ON NODE 10211 INSTANCE PART-1-1 
             - THIS BOUNDARY CONDITION IS IGNORED

 ***WARNING: DEGREE OF FREEDOM 6 IS NOT ACTIVE ON NODE 10212 INSTANCE PART-1-1 
             - THIS BOUNDARY CONDITION IS IGNORED

 ***WARNING: DEGREE OF FREEDOM 6 IS NOT ACTIVE ON NODE 10213 INSTANCE PART-1-1 
             - THIS BOUNDARY CONDITION IS IGNORED

 ***WARNING: DEGREE OF FREEDOM 6 IS NOT ACTIVE ON NODE 10214 INSTANCE PART-1-1 
             - THIS BOUNDARY CONDITION IS IGNORED

 ***WARNING: DEGREE OF FREEDOM 6 IS NOT ACTIVE ON NODE 10215 INSTANCE PART-1-1 
             - THIS BOUNDARY CONDITION IS IGNORED

 ***WARNING: DEGREE OF FREEDOM 6 IS NOT ACTIVE ON NODE 10216 INSTANCE PART-1-1 
             - THIS BOUNDARY CONDITION IS IGNORED

 ***WARNING: DEGREE OF FREEDOM 6 IS NOT ACTIVE ON NODE 10217 INSTANCE PART-1-1 
             - THIS BOUNDARY CONDITION IS IGNORED

 ***WARNING: DEGREE OF FREEDOM 6 IS NOT ACTIVE ON NODE 10218 INSTANCE PART-1-1 
             - THIS BOUNDARY CONDITION IS IGNORED

 ***WARNING: DEGREE OF FREEDOM 6 IS NOT ACTIVE ON NODE 10219 INSTANCE PART-1-1 
             - THIS BOUNDARY CONDITION IS IGNORED

 ***WARNING: DEGREE OF FREEDOM 6 IS NOT ACTIVE ON NODE 10220 INSTANCE PART-1-1 
             - THIS BOUNDARY CONDITION IS IGNORED

 ***WARNING: DEGREE OF FREEDOM 6 IS NOT ACTIVE ON NODE 10221 INSTANCE PART-1-1 
             - THIS BOUNDARY CONDITION IS IGNORED

 ***WARNING: DEGREE OF FREEDOM 6 IS NOT ACTIVE ON NODE 10222 INSTANCE PART-1-1 
             - THIS BOUNDARY CONDITION IS IGNORED

 ***WARNING: DEGREE OF FREEDOM 6 IS NOT ACTIVE ON NODE 10223 INSTANCE PART-1-1 
             - THIS BOUNDARY CONDITION IS IGNORED

 ***WARNING: DEGREE OF FREEDOM 6 IS NOT ACTIVE ON NODE 10224 INSTANCE PART-1-1 
             - THIS BOUNDARY CONDITION IS IGNORED

 ***NOTE: Boundary conditions are specified on inactive dof of 7797 nodes. The 
          nodes have been identified in node set WarnNodeBCInactiveDof.



                            P R O B L E M   S I Z E


          NUMBER OF ELEMENTS IS                                 16202
          NUMBER OF ELEMENTS DEFINED BY THE USER AND *TIE       16200
          NUMBER OF NODES IS                                    16292
          NUMBER OF NODES DEFINED BY THE USER                   16292
          TOTAL NUMBER OF VARIABLES IN THE MODEL                32586
          (DEGREES OF FREEDOM PLUS MAX NO. OF ANY LAGRANGE MULTIPLIER
           VARIABLES. INCLUDE *PRINT,SOLVE=YES TO GET THE ACTUAL NUMBER.)



                              END OF USER INPUT PROCESSING



     JOB TIME SUMMARY
       USER TIME (SEC)      =   2.7000    
       SYSTEM TIME (SEC)    =  0.70000    
       TOTAL CPU TIME (SEC) =   3.4000    
       WALLCLOCK TIME (SEC) =          3
1

   Abaqus 2021.HF3                                  Date 22-Jun-2024   Time 17:43:48
   For use by Supplied by Team-SolidSQUAD under license from Dassault Systemes or its subsidiary.

                                                                                               STEP    1  INCREMENT    1
                                                                                          TIME COMPLETED IN THIS STEP   0.00    


                        S T E P       1     S T A T I C   A N A L Y S I S


                                                                                          

     AUTOMATIC TIME CONTROL WITH -
          A SUGGESTED INITIAL TIME INCREMENT OF                1.000E-05
          AND A TOTAL TIME PERIOD OF                            1.00    
          THE MINIMUM TIME INCREMENT ALLOWED IS                1.000E-12
          THE MAXIMUM TIME INCREMENT ALLOWED IS                 1.00    

     LINEAR EQUATION SOLVER TYPE         DIRECT SPARSE

     ADAPTIVE AUTOMATIC STABILIZATION WITH 
     INITIAL DISSIPATED ENERGY FRACTION  =   2.000E-04

          LARGE DISPLACEMENT THEORY WILL BE USED
  
                   M E M O R Y   E S T I M A T E
  
 PROCESS      FLOATING PT       MINIMUM MEMORY        MEMORY TO
              OPERATIONS           REQUIRED          MINIMIZE I/O
             PER ITERATION           (MB)               (MB)
  
     1          4.68E+08               30                 82
  
 NOTE:
      (1) SINCE ABAQUS DOES NOT PRE-ALLOCATE MEMORY AND ONLY ALLOCATES MEMORY AS NEEDED DURING THE ANALYSIS,
          THE MEMORY REQUIREMENT PRINTED HERE CAN ONLY BE VIEWED AS A GENERAL GUIDELINE BASED ON THE BEST
          KNOWLEDGE AVAILABLE AT THE BEGINNING OF A STEP BEFORE THE SOLUTION PROCESS HAS BEGUN.
      (2) THE ESTIMATE IS NORMALLY UPDATED AT THE BEGINNING OF EVERY STEP. IT IS THE MAXIMUM VALUE OF THE
          ESTIMATE FROM THE CURRENT STEP TO THE LAST STEP OF THE ANALYSIS, WITH UNSYMMETRIC SOLUTION TAKEN
          INTO ACCOUNT IF APPLICABLE. 
      (3) SINCE THE ESTIMATE IS BASED ON THE ACTIVE DEGREES OF FREEDOM IN THE FIRST ITERATION OF THE 
          CURRENT STEP, THE MEMORY ESTIMATE MIGHT BE SIGNIFICANTLY DIFFERENT THAN ACTUAL USAGE FOR 
          PROBLEMS WITH SUBSTANTIAL CHANGES IN ACTIVE DEGREES OF FREEDOM BETWEEN STEPS (OR EVEN WITHIN
          THE SAME STEP). EXAMPLES ARE: PROBLEMS WITH SIGNIFICANT CONTACT CHANGES, PROBLEMS WITH MODEL
          CHANGE, PROBLEMS WITH BOTH STATIC STEP AND STEADY STATE DYNAMIC PROCEDURES WHERE ACOUSTIC 
          ELEMENTS WILL ONLY BE ACTIVATED IN THE STEADY STATE DYNAMIC STEPS.
      (4) FOR MULTI-PROCESS EXECUTION, THE ESTIMATED VALUE OF FLOATING POINT OPERATIONS FOR EACH PROCESS
          IS BASED ON AN INITIAL SCHEDULING OF OPERATIONS AND MIGHT NOT REFLECT THE ACTUAL FLOATING 
          POINT OPERATIONS COMPLETED ON EACH PROCESS. OPERATIONS ARE DYNAMICALLY BALANCED DURING EXECUTION, 
          SO THE ACTUAL BALANCE OF OPERATIONS BETWEEN PROCESSES IS EXPECTED TO BE BETTER THAN THE ESTIMATE
          PRINTED HERE.
      (5) THE UPPER LIMIT OF MEMORY THAT CAN BE ALLOCATED BY ABAQUS WILL IN GENERAL DEPEND ON THE VALUE OF
          THE "MEMORY" PARAMETER AND THE AMOUNT OF PHYSICAL MEMORY AVAILABLE ON THE MACHINE. PLEASE SEE
          THE "ABAQUS ANALYSIS USER'S MANUAL" FOR MORE DETAILS. THE ACTUAL USAGE OF MEMORY AND OF DISK
          SPACE FOR SCRATCH DATA WILL DEPEND ON THIS UPPER LIMIT AS WELL AS THE MEMORY REQUIRED TO MINIMIZE
          I/O. IF THE MEMORY UPPER LIMIT IS GREATER THAN THE MEMORY REQUIRED TO MINIMIZE I/O, THEN THE ACTUAL
          MEMORY USAGE WILL BE CLOSE TO THE ESTIMATED "MEMORY TO MINIMIZE I/O" VALUE, AND THE SCRATCH DISK
          USAGE WILL BE CLOSE-TO-ZERO; OTHERWISE, THE ACTUAL MEMORY USED WILL BE CLOSE TO THE PREVIOUSLY
          MENTIONED MEMORY LIMIT, AND THE SCRATCH DISK USAGE WILL BE ROUGHLY PROPORTIONAL TO THE DIFFERENCE
          BETWEEN THE ESTIMATED "MEMORY TO MINIMIZE I/O" AND THE MEMORY UPPER LIMIT. HOWEVER ACCURATE
          ESTIMATE OF THE SCRATCH DISK SPACE IS NOT POSSIBLE.
      (6) USING "*RESTART, WRITE" CAN GENERATE A LARGE AMOUNT OF DATA WRITTEN IN THE WORK DIRECTORY.
